# LPF package for  MODFLOW-2005, generated by Flopy.
        53    -1E+30         0  
         1
         0
   0.000000E+00
         0
         0
INTERNAL               1 (207E15.6) -1 #hk layer 1                    
   2.538093E-01   5.613221E-02   3.667751E-02   4.483123E-02   9.842645E-02   1.999700E-02   1.148405E-02   2.208875E-02   3.943790E-02   1.444023E-01   7.683277E-02   6.286328E-02   4.578225E-02   7.414720E-02   6.823255E-02   9.497042E-02   3.421879E-01   3.707763E-01   3.621776E-01   6.368606E-02   4.982137E-02   1.213060E-02   1.682636E-02   1.707203E-02   5.740236E-02   7.576851E-02   4.412598E-02   3.910185E-02   5.839019E-02   1.314660E-01   1.735246E-01   2.955832E-01   1.163163E-01   5.219967E-02   4.238703E-02   2.605849E-02   2.592124E-02   5.729694E-02   7.216256E-02   9.308200E-02   3.091358E-02   3.230834E-02   6.510226E-02   2.379469E-02   4.458896E-02   4.680105E-02   7.546137E-02   5.392587E-02   7.114694E-02   1.377062E-01   8.390452E-02   4.077066E-01   3.562534E-01   1.877053E-01   7.691035E-02   1.607181E-01   3.465197E-01   2.544971E-01   2.433118E-01   1.446786E-01   1.386790E-01   1.967354E-01   7.314859E-02   3.936306E-02   1.393352E-01   1.020430E-01   8.725205E-02   6.302563E-02   2.299837E-02   2.266239E-02   4.203280E-02   8.137322E-02   1.250957E-01   7.672282E-02   8.001297E-02   1.077460E-01   3.674236E-02   2.342752E-02   3.544801E-02   2.082023E-02   3.664022E-02   1.589089E-01   9.199525E-02   5.310695E-02   5.955670E-02   1.035675E-01   6.124054E-02   3.440045E-02   3.481847E-02   1.138297E-01   1.138297E-01   5.317134E-02   3.664932E-02   3.664932E-02   4.311700E-02   2.431936E-02   2.431936E-02   3.664742E-02   3.664742E-02   3.664742E-02   9.115388E-02   9.115388E-02   9.115388E-02   1.091349E-01   1.091349E-01   1.091349E-01   1.091349E-01   1.091349E-01   1.103137E-01   1.103137E-01   1.103137E-01   1.103137E-01   1.103137E-01   1.810107E-01   1.810107E-01   1.810107E-01   1.810107E-01   1.810107E-01   1.810107E-01   1.810107E-01   1.012744E-01   1.012744E-01   1.012744E-01   1.012744E-01   1.012744E-01   1.012744E-01   1.012744E-01   1.012744E-01   1.012744E-01   1.012744E-01   1.662639E-01   1.662639E-01   1.662639E-01   1.662639E-01   1.662639E-01   1.662639E-01   1.662639E-01   1.662639E-01   1.662639E-01   1.252162E-01   1.252162E-01   1.252162E-01   1.252162E-01   1.252162E-01   1.252162E-01   1.252162E-01   1.398105E-01   1.398105E-01   1.398105E-01   1.398105E-01   1.398105E-01   6.087052E-02   6.087052E-02   6.087052E-02   6.087052E-02   1.280481E-01   1.280481E-01   1.280481E-01   2.166389E-01   2.166389E-01   1.303612E-01   1.303612E-01   3.233180E-02   3.233180E-02   4.580931E-02   2.003589E-02   6.412805E-02   6.412805E-02   2.741818E-02   2.985284E-02   5.323565E-02   1.674190E-01   1.515632E-01   1.126070E-01   7.969110E-02   6.795508E-02   7.462088E-02   6.011663E-02   5.611103E-02   4.535763E-02   3.790325E-02   2.175231E-02   4.159440E-02   4.967037E-02   3.926612E-02   4.672430E-02   4.425519E-02   3.660725E-02   1.644324E-02   1.421396E-02   3.895720E-02   6.978102E-02   2.668107E-01   1.720197E-01   5.968607E-02   4.716175E-02   1.987883E-02   2.566748E-02   1.933866E-01   2.201708E-01   1.172206E-01   9.031270E-02   5.403919E-02   6.013934E-02   1.880542E-01   1.449810E-01   1.281082E-01
   1.823777E-01   1.293678E-01   1.110413E-01   9.876747E-02   3.803702E-02   1.821560E-02   9.336218E-03   3.266200E-02   5.920368E-02   1.882145E-01   1.214820E-01   5.990317E-02   4.925626E-02   6.611505E-02   9.685632E-02   1.421604E-01   2.972497E-01   2.997446E-01   2.005813E-01   6.949849E-02   2.133345E-02   2.280919E-02   1.444850E-02   2.214311E-02   1.231619E-01   6.218434E-02   7.731583E-02   3.767818E-02   5.320769E-02   2.439355E-01   1.880940E-01   2.948437E-01   2.549789E-01   1.157244E-01   6.560238E-02   3.964055E-02   5.288654E-02   4.023840E-02   9.272143E-02   1.016797E-01   5.760996E-02   5.157497E-02   7.084258E-02   5.156036E-02   5.888564E-02   5.249949E-02   5.682896E-02   7.662982E-02   2.106937E-01   1.696876E-01   2.582133E-01   3.234067E-01   4.696831E-01   1.569889E-01   1.032939E-01   8.582092E-02   2.441633E-01   4.542921E-01   1.399803E-01   1.061265E-01   1.163619E-01   1.309890E-01   2.232910E-02   1.850137E-02   6.821827E-02   1.174337E-01   6.881232E-02   4.157092E-02   2.907966E-02   1.341065E-02   2.718921E-02   4.016284E-02   7.120153E-02   1.015504E-01   1.769030E-01   1.297818E-01   1.135959E-01   4.782355E-02   4.756685E-02   1.003144E-01   6.871523E-02   2.103960E-01   1.026810E-01   4.625630E-02   4.408665E-02   8.767004E-02   4.184913E-02   3.863373E-02   2.291294E-02   1.467102E-01   1.467102E-01   8.460300E-02   5.926351E-02   5.926351E-02   2.962084E-02   2.115318E-02   2.115318E-02   3.146650E-02   3.146650E-02   3.146650E-02   1.354936E-01   1.354936E-01   1.354936E-01   9.799153E-02   9.799153E-02   9.799153E-02   9.799153E-02   9.799153E-02   1.637894E-01   1.637894E-01   1.637894E-01   1.637894E-01   1.637894E-01   5.838542E-01   5.838542E-01   5.838542E-01   5.838542E-01   5.838542E-01   5.838542E-01   5.838542E-01   2.094419E-01   2.094419E-01   2.094419E-01   2.094419E-01   2.094419E-01   2.094419E-01   2.094419E-01   2.094419E-01   2.094419E-01   2.094419E-01   1.504428E-01   1.504428E-01   1.504428E-01   1.504428E-01   1.504428E-01   1.504428E-01   1.504428E-01   1.504428E-01   1.504428E-01   1.479536E-01   1.479536E-01   1.479536E-01   1.479536E-01   1.479536E-01   1.479536E-01   1.479536E-01   1.355470E-01   1.355470E-01   1.355470E-01   1.355470E-01   1.355470E-01   9.591796E-02   9.591796E-02   9.591796E-02   9.591796E-02   1.784197E-01   1.784197E-01   1.784197E-01   2.803505E-01   2.803505E-01   9.400201E-02   9.400201E-02   3.837584E-02   3.837584E-02   2.401728E-02   2.481086E-02   2.185994E-02   2.185994E-02   5.436277E-02   3.691589E-02   6.034679E-02   1.222307E-01   2.370643E-01   8.342010E-02   1.132411E-01   1.113013E-01   5.542044E-02   2.448485E-02   6.887579E-02   5.536731E-02   3.005682E-02   1.075045E-02   4.173321E-02   8.603655E-02   4.019646E-02   4.104646E-02   5.776785E-02   4.563505E-02   3.766644E-02   1.537578E-02   3.127858E-02   7.887515E-02   1.664557E-01   1.976589E-01   6.562114E-02   3.490391E-02   2.445696E-02   8.132387E-02   2.358998E-01   1.396954E-01   1.183645E-01   5.124390E-02   9.446786E-02   1.560289E-01   3.352101E-01   3.790843E-01   1.345073E-01
   1.249829E-01   2.218589E-01   8.767568E-02   6.107974E-02   2.721046E-02   2.784364E-02   1.023444E-02   1.797359E-02   9.694543E-02   1.026901E-01   1.077084E-01   4.462137E-02   7.028051E-02   5.478330E-02   1.198364E-01   1.092163E-01   3.016945E-01   3.423737E-01   1.687292E-01   9.549292E-02   1.970882E-02   3.251181E-02   2.268821E-02   2.001494E-02   1.858105E-01   6.942816E-02   8.193775E-02   5.017699E-02   1.155205E-01   4.171281E-01   2.060369E-01   4.167190E-01   3.333557E-01   1.085525E-01   4.278941E-02   3.709470E-02   5.682738E-02   6.751976E-02   9.423727E-02   8.784783E-02   5.083808E-02   5.614815E-02   5.519876E-02   3.771582E-02   6.644660E-02   9.726801E-02   6.668263E-02   4.881652E-02   1.406670E-01   3.013081E-01   3.350447E-01   4.830126E-01   1.812696E-01   9.230010E-02   2.246915E-01   2.559356E-01   3.235049E-01   3.916981E-01   1.774481E-01   6.935844E-02   7.276560E-02   4.963061E-02   1.988684E-02   1.343774E-02   5.686400E-02   8.790690E-02   4.960585E-02   4.127701E-02   5.185541E-02   1.945577E-02   2.081982E-02   9.333061E-02   1.203891E-01   1.461411E-01   1.903919E-01   1.834391E-01   1.934534E-01   1.958670E-01   7.538461E-02   1.240855E-01   1.840514E-01   1.414180E-01   1.584540E-01   1.238580E-01   4.961774E-02   1.302204E-01   1.225735E-01   3.126314E-02   5.060723E-02   1.166643E-01   1.166643E-01   9.523072E-02   4.629928E-02   4.629928E-02   5.681317E-02   3.376133E-02   3.376133E-02   5.054016E-02   5.054016E-02   5.054016E-02   9.447168E-02   9.447168E-02   9.447168E-02   9.176601E-02   9.176601E-02   9.176601E-02   9.176601E-02   9.176601E-02   3.052430E-01   3.052430E-01   3.052430E-01   3.052430E-01   3.052430E-01   4.366692E-01   4.366692E-01   4.366692E-01   4.366692E-01   4.366692E-01   4.366692E-01   4.366692E-01   3.008475E-01   3.008475E-01   3.008475E-01   3.008475E-01   3.008475E-01   3.008475E-01   3.008475E-01   3.008475E-01   3.008475E-01   3.008475E-01   2.980122E-01   2.980122E-01   2.980122E-01   2.980122E-01   2.980122E-01   2.980122E-01   2.980122E-01   2.980122E-01   2.980122E-01   1.268930E-01   1.268930E-01   1.268930E-01   1.268930E-01   1.268930E-01   1.268930E-01   1.268930E-01   9.941478E-02   9.941478E-02   9.941478E-02   9.941478E-02   9.941478E-02   1.783018E-01   1.783018E-01   1.783018E-01   1.783018E-01   5.150816E-02   5.150816E-02   5.150816E-02   7.970428E-02   7.970428E-02   5.577434E-02   5.577434E-02   3.092488E-02   3.092488E-02   9.995535E-03   2.731011E-02   1.629077E-02   1.629077E-02   3.092115E-02   1.438683E-02   4.895421E-02   1.177408E-01   1.738942E-01   1.645256E-01   1.215724E-01   1.158080E-01   4.080413E-02   2.475457E-02   6.762024E-02   4.250986E-02   4.412666E-02   3.315509E-02   4.063459E-02   3.940129E-02   5.308626E-02   4.383960E-02   6.141469E-02   7.445760E-02   3.353297E-02   2.971947E-02   5.542848E-02   9.906001E-02   1.194252E-01   1.667113E-01   6.746046E-02   6.552596E-02   7.797966E-02   5.925160E-02   2.237486E-01   3.017631E-01   2.225076E-01   5.237122E-02   5.362134E-02   7.869459E-02   5.262328E-01   1.342033E-01   5.264808E-02
   1.552423E-01   1.428174E-01   1.752509E-01   6.987892E-02   3.208939E-02   4.056865E-02   1.104068E-02   2.204265E-02   6.077050E-02   8.467060E-02   7.650986E-02   7.842006E-02   1.153070E-01   1.549207E-01   1.078602E-01   1.798480E-01   5.161757E-01   2.104467E-01   8.185551E-02   9.068376E-02   3.032455E-02   5.256350E-02   5.049154E-02   4.478870E-02   7.422541E-02   9.720337E-02   7.313084E-02   7.711872E-02   1.388004E-01   5.298933E-01   2.047775E-01   1.483727E-01   2.401056E-01   1.158060E-01   6.245097E-02   2.372013E-02   3.852721E-02   6.846827E-02   9.101218E-02   3.388951E-02   4.241852E-02   1.360501E-01   4.889040E-02   8.119044E-02   5.952469E-02   1.119176E-01   5.643896E-02   2.945062E-02   1.647064E-01   2.626095E-01   3.829191E-01   2.618296E-01   1.576829E-01   1.295004E-01   3.130575E-01   1.403919E-01   5.023446E-01   4.942216E-01   4.392008E-01   1.598713E-01   5.685600E-02   2.139766E-02   1.944099E-02   3.572471E-02   2.317317E-02   3.780317E-02   4.756026E-02   2.803937E-02   6.021755E-02   2.668162E-02   2.441081E-02   5.959862E-02   1.159717E-01   1.730446E-01   3.469131E-01   3.271585E-01   2.251754E-01   1.738961E-01   5.995089E-02   6.597576E-02   1.500238E-01   3.150210E-01   1.954304E-01   1.767568E-01   1.504675E-01   1.928513E-01   1.599961E-01   6.645270E-02   5.411689E-02   1.569688E-01   1.569688E-01   6.321376E-02   3.145375E-02   3.145375E-02   1.741965E-02   2.069435E-02   2.069435E-02   2.294999E-02   2.294999E-02   2.294999E-02   9.390812E-02   9.390812E-02   9.390812E-02   2.047903E-01   2.047903E-01   2.047903E-01   2.047903E-01   2.047903E-01   1.697183E-01   1.697183E-01   1.697183E-01   1.697183E-01   1.697183E-01   2.838292E-01   2.838292E-01   2.838292E-01   2.838292E-01   2.838292E-01   2.838292E-01   2.838292E-01   2.788688E-01   2.788688E-01   2.788688E-01   2.788688E-01   2.788688E-01   2.788688E-01   2.788688E-01   2.788688E-01   2.788688E-01   2.788688E-01   2.712841E-01   2.712841E-01   2.712841E-01   2.712841E-01   2.712841E-01   2.712841E-01   2.712841E-01   2.712841E-01   2.712841E-01   2.637326E-01   2.637326E-01   2.637326E-01   2.637326E-01   2.637326E-01   2.637326E-01   2.637326E-01   1.442267E-01   1.442267E-01   1.442267E-01   1.442267E-01   1.442267E-01   1.441886E-01   1.441886E-01   1.441886E-01   1.441886E-01   4.090936E-02   4.090936E-02   4.090936E-02   7.630951E-02   7.630951E-02   4.624032E-02   4.624032E-02   2.254093E-02   2.254093E-02   1.010930E-02   1.070688E-02   2.414772E-02   2.414772E-02   4.430531E-02   6.019390E-02   1.199716E-01   1.365504E-01   4.012947E-01   2.143984E-01   1.480360E-01   1.321805E-01   2.894240E-02   6.015765E-02   7.567824E-02   5.919535E-02   1.073098E-01   7.100558E-02   3.561406E-02   4.859974E-02   3.376447E-02   3.662359E-02   1.087790E-01   7.086549E-02   7.074271E-02   3.425316E-02   8.612853E-02   1.256044E-01   9.739926E-02   1.279058E-01   9.546363E-02   5.119046E-02   7.193629E-02   5.045081E-02   1.476282E-01   8.400888E-02   2.136716E-01   8.571374E-02   4.774157E-02   7.797657E-02   2.581910E-01   1.844192E-01   4.417719E-02
   1.595183E-01   1.051155E-01   1.622492E-01   5.426276E-02   6.688885E-02   3.831891E-02   2.810089E-02   3.360035E-02   3.707238E-02   3.764039E-02   5.275550E-02   1.199093E-01   7.385357E-02   1.088270E-01   1.724962E-01   3.692096E-01   3.449326E-01   8.965049E-02   1.976897E-01   1.174842E-01   9.036783E-02   6.342436E-02   8.774915E-02   1.227585E-01   1.459428E-01   1.444778E-01   4.243140E-02   1.212296E-01   1.063362E-01   4.505922E-01   2.398620E-01   3.504802E-01   3.489879E-01   9.119738E-02   3.982032E-02   1.405749E-02   2.347811E-02   2.935032E-02   8.266030E-02   5.953466E-02   4.280964E-02   1.316487E-01   3.218386E-02   5.916289E-02   5.976187E-02   2.831562E-01   1.198478E-01   4.787813E-02   8.435860E-02   2.166837E-01   3.759553E-01   3.514985E-01   1.609504E-01   1.941436E-01   2.127024E-01   1.673213E-01   3.338568E-01   3.287481E-01   3.640561E-01   1.247301E-01   3.001038E-02   1.601338E-02   3.138217E-02   7.865742E-02   2.307165E-02   4.724031E-02   6.523146E-02   3.389687E-02   2.766295E-02   4.503420E-02   8.523057E-02   9.769563E-02   7.083113E-02   1.615480E-01   4.217133E-01   3.224418E-01   5.052718E-01   2.076827E-01   6.258927E-02   1.010085E-01   2.966536E-01   2.559147E-01   2.006070E-01   2.163028E-01   4.511712E-01   1.396625E-01   1.480163E-01   6.232486E-02   4.684409E-02   1.042562E-01   1.042562E-01   4.407556E-02   4.015689E-02   4.015689E-02   2.340020E-02   2.462408E-02   2.462408E-02   4.238384E-02   4.238384E-02   4.238384E-02   9.707137E-02   9.707137E-02   9.707137E-02   2.584820E-01   2.584820E-01   2.584820E-01   2.584820E-01   2.584820E-01   1.717906E-01   1.717906E-01   1.717906E-01   1.717906E-01   1.717906E-01   2.414502E-01   2.414502E-01   2.414502E-01   2.414502E-01   2.414502E-01   2.414502E-01   2.414502E-01   4.744652E-01   4.744652E-01   4.744652E-01   4.744652E-01   4.744652E-01   4.744652E-01   4.744652E-01   4.744652E-01   4.744652E-01   4.744652E-01   2.383481E-01   2.383481E-01   2.383481E-01   2.383481E-01   2.383481E-01   2.383481E-01   2.383481E-01   2.383481E-01   2.383481E-01   2.095854E-01   2.095854E-01   2.095854E-01   2.095854E-01   2.095854E-01   2.095854E-01   2.095854E-01   9.430082E-02   9.430082E-02   9.430082E-02   9.430082E-02   9.430082E-02   1.185981E-01   1.185981E-01   1.185981E-01   1.185981E-01   6.042859E-02   6.042859E-02   6.042859E-02   4.948123E-02   4.948123E-02   8.977301E-02   8.977301E-02   1.709687E-02   1.709687E-02   1.141140E-02   1.046192E-02   2.857618E-02   2.857618E-02   3.398915E-02   6.649545E-02   1.777934E-01   1.870681E-01   3.212871E-01   1.045838E-01   1.936608E-01   6.523651E-02   8.880849E-02   7.936952E-02   4.503558E-02   8.291862E-02   1.046749E-01   4.006404E-02   1.432067E-01   5.308154E-02   5.692277E-02   2.854730E-02   4.414178E-02   3.383478E-02   8.699495E-02   8.025457E-02   1.562705E-01   4.097626E-01   1.409915E-01   1.031703E-01   4.394002E-02   4.561721E-02   8.856668E-02   1.053004E-01   5.845835E-02   7.562616E-02   1.371771E-01   1.433329E-01   1.313361E-01   1.218131E-01   2.082964E-01   1.383099E-01   5.087008E-02
   7.340338E-02   9.078180E-02   1.271913E-01   5.572571E-02   7.605216E-02   1.635397E-01   1.029776E-01   6.479678E-02   2.650256E-02   2.387679E-02   5.428741E-02   1.605849E-01   8.447039E-02   4.232548E-02   1.041516E-01   2.752157E-01   2.797085E-01   1.405799E-01   8.168275E-02   7.569558E-02   7.462623E-02   5.705204E-02   8.028549E-02   1.237151E-01   1.538853E-01   1.674171E-01   1.021135E-01   1.361712E-01   1.374825E-01   3.959846E-01   2.440580E-01   2.457048E-01   3.498639E-01   7.107288E-02   5.390264E-02   2.001031E-02   2.460793E-02   3.234897E-02   1.495599E-01   1.032367E-01   6.986853E-02   6.275925E-02   2.686271E-02   3.592268E-02   4.493907E-02   1.556267E-01   5.643091E-02   5.726585E-02   8.972199E-02   1.511524E-01   3.409716E-01   1.550477E-01   7.372513E-02   1.769732E-01   1.248685E-01   2.370339E-01   1.743199E-01   2.271069E-01   3.496794E-01   1.170817E-01   2.964046E-02   2.732326E-02   5.101433E-02   2.637518E-02   2.077724E-02   5.143451E-02   5.884875E-02   4.008959E-02   2.189550E-02   2.526045E-02   6.264950E-02   8.200507E-02   5.668018E-02   1.732399E-01   5.434493E-01   7.120967E-01   6.055004E-01   1.150070E-01   8.578204E-02   1.298465E-01   1.750528E-01   2.054702E-01   1.986153E-01   4.118699E-01   2.536977E-01   1.105312E-01   1.522201E-01   5.207882E-02   6.604581E-02   4.782511E-02   4.782511E-02   2.292379E-02   2.844838E-02   2.844838E-02   3.679714E-02   1.362399E-02   1.362399E-02   4.944840E-02   4.944840E-02   4.944840E-02   1.113646E-01   1.113646E-01   1.113646E-01   3.987330E-01   3.987330E-01   3.987330E-01   3.987330E-01   3.987330E-01   1.811105E-01   1.811105E-01   1.811105E-01   1.811105E-01   1.811105E-01   1.581935E-01   1.581935E-01   1.581935E-01   1.581935E-01   1.581935E-01   1.581935E-01   1.581935E-01   2.803891E-01   2.803891E-01   2.803891E-01   2.803891E-01   2.803891E-01   2.803891E-01   2.803891E-01   2.803891E-01   2.803891E-01   2.803891E-01   3.851204E-01   3.851204E-01   3.851204E-01   3.851204E-01   3.851204E-01   3.851204E-01   3.851204E-01   3.851204E-01   3.851204E-01   2.684309E-01   2.684309E-01   2.684309E-01   2.684309E-01   2.684309E-01   2.684309E-01   2.684309E-01   8.299698E-02   8.299698E-02   8.299698E-02   8.299698E-02   8.299698E-02   9.588508E-02   9.588508E-02   9.588508E-02   9.588508E-02   5.860819E-02   5.860819E-02   5.860819E-02   6.054299E-02   6.054299E-02   9.174416E-02   9.174416E-02   4.184109E-02   4.184109E-02   1.346469E-02   2.980641E-02   2.035435E-02   2.035435E-02   3.134770E-02   7.746951E-02   2.426301E-01   2.532050E-01   2.858360E-01   1.366046E-01   4.312377E-01   1.244021E-01   1.612332E-01   8.865535E-02   8.185804E-02   4.564463E-02   6.988356E-02   1.278702E-01   2.291993E-01   7.667560E-02   1.047791E-01   6.064230E-02   6.721038E-02   6.257209E-02   8.342950E-02   1.384582E-01   2.107279E-01   1.222424E-01   1.186472E-01   1.465355E-01   5.355978E-02   3.581234E-02   6.029449E-02   1.355727E-01   1.759788E-01   9.221280E-02   2.957075E-02   9.340499E-02   1.480204E-01   1.433294E-01   1.360371E-01   1.626370E-01   7.416338E-02
   1.254606E-01   9.539122E-02   1.250271E-01   6.075451E-02   4.639517E-02   1.420604E-01   2.059296E-01   1.705158E-01   4.181067E-02   3.937148E-02   5.847363E-02   1.359541E-01   8.814117E-02   8.758672E-02   1.311100E-01   2.959542E-01   1.375246E-01   1.747806E-01   1.328266E-01   7.390950E-02   8.163643E-02   7.950988E-02   1.032962E-01   1.095465E-01   1.652378E-01   3.066979E-01   1.447510E-01   4.498972E-01   3.141155E-01   4.033660E-01   3.064399E-01   1.278402E-01   1.949943E-01   5.952977E-02   4.939434E-02   2.613198E-02   3.531385E-02   5.716800E-02   1.731815E-01   9.086940E-02   1.038314E-01   7.094093E-02   4.485963E-02   7.932068E-02   4.080770E-02   6.862587E-02   7.895701E-02   5.906437E-02   2.102524E-01   1.716826E-01   3.117640E-01   1.075185E-01   8.389062E-02   6.889280E-02   9.407470E-02   1.117731E-01   1.887697E-01   5.522120E-02   9.117904E-02   7.538472E-02   4.071426E-02   4.179572E-02   6.142271E-02   7.645860E-02   1.048434E-01   4.873890E-02   2.754689E-02   1.372691E-02   1.485448E-02   9.514625E-03   3.440850E-02   5.810999E-02   9.498547E-02   1.286080E-01   5.918010E-01   1.390256E+00   2.779273E-01   1.058291E-01   4.400927E-02   9.663120E-02   9.611978E-02   1.292821E-01   1.752776E-01   3.625408E-01   1.897256E-01   9.457532E-02   6.898145E-02   6.986756E-02   7.843123E-02   2.625937E-02   2.625937E-02   2.149417E-02   2.432042E-02   2.432042E-02   2.297369E-02   1.745034E-02   1.745034E-02   5.704173E-02   5.704173E-02   5.704173E-02   1.245378E-01   1.245378E-01   1.245378E-01   3.145358E-01   3.145358E-01   3.145358E-01   3.145358E-01   3.145358E-01   1.241468E-01   1.241468E-01   1.241468E-01   1.241468E-01   1.241468E-01   1.440603E-01   1.440603E-01   1.440603E-01   1.440603E-01   1.440603E-01   1.440603E-01   1.440603E-01   3.890913E-01   3.890913E-01   3.890913E-01   3.890913E-01   3.890913E-01   3.890913E-01   3.890913E-01   3.890913E-01   3.890913E-01   3.890913E-01   2.942577E-01   2.942577E-01   2.942577E-01   2.942577E-01   2.942577E-01   2.942577E-01   2.942577E-01   2.942577E-01   2.942577E-01   2.909943E-01   2.909943E-01   2.909943E-01   2.909943E-01   2.909943E-01   2.909943E-01   2.909943E-01   1.517717E-01   1.517717E-01   1.517717E-01   1.517717E-01   1.517717E-01   1.484284E-01   1.484284E-01   1.484284E-01   1.484284E-01   7.429355E-02   7.429355E-02   7.429355E-02   1.691991E-01   1.691991E-01   6.521129E-02   6.521129E-02   5.973899E-02   5.973899E-02   3.234205E-02   3.596573E-02   3.081630E-02   3.081630E-02   6.024322E-02   1.087139E-01   3.497210E-01   2.466480E-01   1.867799E-01   9.788014E-02   1.579663E-01   2.033548E-01   1.290754E-01   1.466272E-01   9.008876E-02   4.613782E-02   7.045762E-02   6.205209E-02   1.617734E-01   1.960683E-01   9.207255E-02   9.529018E-02   6.726247E-02   1.253811E-01   1.335692E-01   9.080179E-02   2.077623E-01   2.024389E-01   1.131697E-01   1.487204E-01   5.279709E-02   7.462378E-02   1.498378E-01   9.154578E-02   5.396113E-02   7.687167E-02   1.978032E-02   4.399489E-02   7.324248E-02   1.284970E-01   1.120942E-01   1.607584E-01   1.125455E-01
   1.884841E-01   1.125495E-01   1.131838E-01   7.683326E-02   1.366886E-01   2.462706E-01   2.663770E-01   1.772225E-01   7.950835E-02   9.625736E-02   1.100126E-01   1.677155E-01   6.138596E-02   2.290479E-01   8.827498E-02   1.721310E-01   6.946517E-02   1.065377E-01   4.479526E-02   8.615597E-02   1.835950E-01   1.048877E-01   9.173594E-02   1.201448E-01   1.127488E-01   2.971329E-01   1.490185E-01   6.455861E-01   6.330455E-01   3.097183E-01   4.780975E-01   1.759583E-01   1.248624E-01   5.105085E-02   1.059016E-01   4.632644E-02   7.447655E-02   1.163681E-01   1.289953E-01   1.750254E-01   1.202181E-01   9.163808E-02   2.193286E-02   2.058710E-02   4.165732E-02   5.194883E-02   1.598740E-01   7.906714E-02   8.790225E-02   1.239046E-01   1.502421E-01   7.548104E-02   3.401455E-02   1.563030E-02   3.483180E-02   1.135478E-01   2.074521E-01   7.264104E-02   7.045402E-02   8.201394E-02   1.166294E-01   6.722268E-02   6.831151E-02   8.399402E-02   4.534966E-02   2.824193E-02   4.040015E-02   1.239633E-02   1.624459E-02   2.997090E-02   4.065851E-02   1.030308E-01   1.747491E-01   2.430323E-01   7.292354E-01   6.921529E-01   1.388395E-01   1.059889E-01   4.566606E-02   1.011169E-01   1.055191E-01   8.958834E-02   1.575815E-01   2.489739E-01   7.683345E-02   5.020108E-02   6.045263E-02   3.901428E-02   4.765559E-02   4.438063E-02   4.438063E-02   4.071149E-02   6.212550E-02   6.212550E-02   4.335908E-02   2.855860E-02   2.855860E-02   6.594323E-02   6.594323E-02   6.594323E-02   4.155750E-02   4.155750E-02   4.155750E-02   1.533686E-01   1.533686E-01   1.533686E-01   1.533686E-01   1.533686E-01   5.308208E-01   5.308208E-01   5.308208E-01   5.308208E-01   5.308208E-01   3.252722E-01   3.252722E-01   3.252722E-01   3.252722E-01   3.252722E-01   3.252722E-01   3.252722E-01   2.573544E-01   2.573544E-01   2.573544E-01   2.573544E-01   2.573544E-01   2.573544E-01   2.573544E-01   2.573544E-01   2.573544E-01   2.573544E-01   2.744263E-01   2.744263E-01   2.744263E-01   2.744263E-01   2.744263E-01   2.744263E-01   2.744263E-01   2.744263E-01   2.744263E-01   4.782575E-01   4.782575E-01   4.782575E-01   4.782575E-01   4.782575E-01   4.782575E-01   4.782575E-01   1.074377E-01   1.074377E-01   1.074377E-01   1.074377E-01   1.074377E-01   2.688211E-01   2.688211E-01   2.688211E-01   2.688211E-01   1.051193E-01   1.051193E-01   1.051193E-01   1.139507E-01   1.139507E-01   9.773908E-02   9.773908E-02   7.433362E-02   7.433362E-02   3.969310E-02   5.031103E-02   4.872784E-02   4.872784E-02   9.426655E-02   1.712905E-01   1.743038E-01   1.180715E-01   2.432544E-01   8.753157E-02   1.257959E-01   8.880907E-02   8.321077E-02   8.653459E-02   6.038168E-02   7.499196E-02   9.739632E-02   9.596412E-02   1.515651E-01   2.571885E-01   1.435407E-01   1.044291E-01   1.433451E-01   2.130949E-01   1.019473E-01   8.295830E-02   9.680739E-02   9.234279E-02   1.059807E-01   8.600018E-02   6.732784E-02   5.619441E-02   1.579843E-01   1.151792E-01   7.293627E-02   9.364709E-02   2.533580E-02   8.029424E-02   3.867047E-02   1.818923E-01   3.087437E-01   1.566494E-01   3.763319E-01
   1.621225E-01   1.413224E-01   2.224740E-01   1.791909E-01   1.650434E-01   1.316085E-01   2.874421E-01   1.230475E-01   9.125276E-02   1.336120E-01   1.127541E-01   6.311810E-02   5.342032E-02   9.026674E-02   1.308611E-01   1.409154E-01   9.377518E-02   5.504421E-02   8.516978E-02   5.608520E-02   2.335925E-01   8.886670E-02   1.331876E-01   1.390457E-01   6.671750E-02   2.907267E-01   5.464647E-01   1.612572E+00   6.906065E-01   6.768885E-01   4.813133E-01   6.297451E-01   1.563497E-01   1.291681E-01   1.719505E-01   4.654507E-02   9.609031E-02   1.199457E-01   1.186843E-01   2.216382E-01   9.119906E-02   1.092345E-01   3.525441E-02   3.101852E-02   5.516781E-02   4.710535E-02   7.897273E-02   1.300187E-01   1.559618E-01   7.154711E-02   9.749929E-02   3.361172E-02   1.906456E-02   9.296705E-03   3.219044E-02   1.054223E-01   1.098214E-01   6.491394E-02   5.941842E-02   1.099666E-01   1.665671E-01   3.618813E-02   2.086495E-01   1.107836E-01   6.081937E-02   2.913844E-02   5.677230E-02   2.469769E-02   1.973162E-02   1.832180E-02   3.199757E-02   8.560389E-02   2.049644E-01   1.734860E-01   3.454207E-01   2.081020E-01   7.012714E-02   6.876262E-02   4.051331E-02   5.776864E-02   5.773439E-02   3.616743E-02   8.552725E-02   8.940087E-02   8.667640E-02   1.524512E-02   7.472785E-02   3.045962E-02   4.054930E-02   1.737416E-02   1.737416E-02   1.796627E-02   4.723071E-02   4.723071E-02   3.017173E-02   3.215967E-02   3.215967E-02   3.249717E-02   3.249717E-02   3.249717E-02   4.895770E-02   4.895770E-02   4.895770E-02   2.406307E-01   2.406307E-01   2.406307E-01   2.406307E-01   2.406307E-01   1.917702E-01   1.917702E-01   1.917702E-01   1.917702E-01   1.917702E-01   2.755134E-01   2.755134E-01   2.755134E-01   2.755134E-01   2.755134E-01   2.755134E-01   2.755134E-01   3.972321E-01   3.972321E-01   3.972321E-01   3.972321E-01   3.972321E-01   3.972321E-01   3.972321E-01   3.972321E-01   3.972321E-01   3.972321E-01   1.573410E-01   1.573410E-01   1.573410E-01   1.573410E-01   1.573410E-01   1.573410E-01   1.573410E-01   1.573410E-01   1.573410E-01   3.874322E-01   3.874322E-01   3.874322E-01   3.874322E-01   3.874322E-01   3.874322E-01   3.874322E-01   1.737954E-01   1.737954E-01   1.737954E-01   1.737954E-01   1.737954E-01   1.329374E-01   1.329374E-01   1.329374E-01   1.329374E-01   1.568126E-01   1.568126E-01   1.568126E-01   6.605806E-02   6.605806E-02   9.722214E-02   9.722214E-02   1.267225E-01   1.267225E-01   1.900773E-01   9.696975E-02   1.040869E-01   1.040869E-01   8.176351E-02   9.846219E-02   1.119155E-01   2.813080E-01   1.438764E-01   7.611986E-02   1.144561E-01   9.712864E-02   9.112867E-02   9.537974E-02   5.138675E-02   7.044858E-02   5.320260E-02   4.007142E-02   9.209523E-02   1.660865E-01   2.472360E-01   1.927381E-01   2.907283E-01   1.838100E-01   8.438638E-02   6.016393E-02   6.629565E-02   1.496593E-01   1.058221E-01   5.064502E-02   7.198717E-02   4.604304E-02   5.209850E-02   5.650597E-02   4.586516E-02   2.128819E-02   2.181890E-02   4.149177E-02   2.119288E-02   1.328394E-01   1.538073E-01   2.221228E-01   2.353039E-01