# LPF package for  MODFLOW-2005, generated by Flopy.
        53    -1E+30         0  
         1
         0
   0.000000E+00
         0
         0
INTERNAL               1 (207E15.6) -1 #hk layer 1                    
   7.552727E+00   1.164733E+01   4.408389E+01   5.055587E+01   9.103452E+01   3.847513E+01   6.825761E+01   1.028085E+02   1.585894E+01   1.178471E+01   8.767776E+00   1.239109E+01   2.084665E+01   2.441361E+01   1.618033E+01   3.352581E+01   1.526721E+01   1.393672E+01   3.983314E+01   5.715894E+01   1.124643E+02   1.058505E+02   6.261766E+01   1.069770E+02   1.988811E+01   1.396375E+01   2.642074E+01   3.788190E+01   3.772860E+01   4.914146E+01   1.728021E+02   9.133498E+01   2.704797E+02   1.564146E+02   1.031988E+02   9.090888E+01   3.370610E+01   1.308651E+01   7.295755E+01   3.126108E+01   1.506097E+01   4.590699E+01   3.218877E+01   5.694155E+01   6.052153E+01   1.247566E+02   5.853529E+01   5.161841E+01   2.377647E+01   1.692652E+01   1.318675E+01   1.165483E+01   1.257009E+01   6.799637E+00   2.531274E+01   1.092187E+01   3.436899E+01   6.539539E+01   4.777855E+01   3.095699E+01   4.833961E+01   3.892484E+01   3.088070E+01   3.702641E+01   3.450153E+01   2.537885E+01   2.649682E+01   3.526200E+01   5.388317E+01   1.397754E+02   1.155456E+02   1.353372E+02   1.622286E+02   7.774030E+01   6.047926E+01   3.164084E+01   5.634737E+01   5.963322E+01   3.314381E+01   7.465171E+00   4.295589E+00   7.803472E+00   2.163227E+01   3.788859E+01   6.916563E+01   6.936783E+01   2.307632E+01   1.745860E+01   3.969012E+01   1.843297E+01   1.843297E+01   1.198545E+01   5.855480E+00   5.855480E+00   7.509298E+00   6.400332E+00   6.400332E+00   2.646450E+01   2.646450E+01   2.646450E+01   2.143899E+01   2.143899E+01   2.143899E+01   2.382507E+01   2.382507E+01   2.382507E+01   2.382507E+01   2.382507E+01   2.983671E+01   2.983671E+01   2.983671E+01   2.983671E+01   2.983671E+01   3.406508E+01   3.406508E+01   3.406508E+01   3.406508E+01   3.406508E+01   3.406508E+01   3.406508E+01   2.800559E+01   2.800559E+01   2.800559E+01   2.800559E+01   2.800559E+01   2.800559E+01   2.800559E+01   2.800559E+01   2.800559E+01   2.800559E+01   2.493391E+01   2.493391E+01   2.493391E+01   2.493391E+01   2.493391E+01   2.493391E+01   2.493391E+01   2.493391E+01   2.493391E+01   2.791436E+01   2.791436E+01   2.791436E+01   2.791436E+01   2.791436E+01   2.791436E+01   2.791436E+01   1.221414E+01   1.221414E+01   1.221414E+01   1.221414E+01   1.221414E+01   3.348212E+01   3.348212E+01   3.348212E+01   3.348212E+01   6.395604E+01   6.395604E+01   6.395604E+01   3.285219E+01   3.285219E+01   1.432053E+02   1.432053E+02   1.029685E+02   1.029685E+02   6.857402E+01   5.435392E+01   6.876506E+01   6.876506E+01   3.347290E+01   3.442509E+01   4.802480E+01   3.641952E+01   2.826894E+01   1.171796E+01   9.684344E+01   1.902067E+02   1.136239E+02   8.170410E+01   6.473243E+01   3.502583E+01   2.427665E+01   3.114105E+01   1.802394E+01   5.644301E+00   2.226638E+01   4.445653E+01   5.231377E+01   5.572476E+01   5.216786E+01   3.581531E+01   1.361544E+01   2.803093E+01   2.438258E+01   3.857816E+01   2.520380E+01   2.317815E+01   1.521574E+01   2.172091E+01   1.491205E+01   5.388425E+01   7.482553E+01   3.749999E+01   2.588566E+01   2.446894E+01   6.894205E+01   1.060345E+02   3.901142E+01
   1.679324E+01   8.527327E+00   3.372895E+01   1.099434E+02   9.404082E+01   9.100025E+01   3.312924E+02   4.058529E+01   1.877825E+01   2.629631E+01   2.040472E+01   1.726010E+01   3.680542E+01   3.590642E+01   2.367994E+01   2.925084E+01   1.559631E+01   1.390979E+01   3.981778E+01   4.503336E+01   9.376789E+01   8.572894E+01   5.861031E+01   8.895432E+01   2.902099E+01   2.760703E+01   4.890564E+01   3.995637E+01   4.105030E+01   4.753467E+01   3.285825E+01   9.339050E+01   1.771522E+02   2.582347E+02   1.400751E+02   6.076277E+01   1.865171E+01   1.586968E+01   4.835798E+01   2.024575E+01   9.751890E+00   4.555503E+01   2.801392E+01   2.110659E+01   2.726948E+01   6.215883E+01   7.609285E+01   8.550839E+01   3.969910E+01   3.461948E+01   1.028218E+01   1.568062E+01   1.635998E+01   1.094141E+01   3.173198E+01   3.015639E+01   4.776484E+01   4.387637E+01   2.492803E+01   2.223801E+01   4.397248E+01   2.265545E+01   3.142798E+01   2.272619E+01   2.338317E+01   1.699927E+01   2.989409E+01   2.544363E+01   6.670718E+01   1.779753E+02   3.803474E+02   9.995267E+01   9.754992E+01   7.734621E+01   6.254345E+01   1.208387E+02   3.872948E+01   2.151797E+01   1.883664E+01   5.630559E+00   6.021664E+00   1.908715E+01   3.112859E+01   2.094077E+01   5.237976E+01   8.704041E+01   3.217664E+01   2.144805E+01   2.904423E+01   9.622348E+00   9.622348E+00   1.064457E+01   6.417223E+00   6.417223E+00   5.343418E+00   5.612034E+00   5.612034E+00   1.814934E+01   1.814934E+01   1.814934E+01   2.341646E+01   2.341646E+01   2.341646E+01   3.176627E+01   3.176627E+01   3.176627E+01   3.176627E+01   3.176627E+01   3.386179E+01   3.386179E+01   3.386179E+01   3.386179E+01   3.386179E+01   2.704793E+01   2.704793E+01   2.704793E+01   2.704793E+01   2.704793E+01   2.704793E+01   2.704793E+01   1.272292E+01   1.272292E+01   1.272292E+01   1.272292E+01   1.272292E+01   1.272292E+01   1.272292E+01   1.272292E+01   1.272292E+01   1.272292E+01   2.457313E+01   2.457313E+01   2.457313E+01   2.457313E+01   2.457313E+01   2.457313E+01   2.457313E+01   2.457313E+01   2.457313E+01   1.277186E+01   1.277186E+01   1.277186E+01   1.277186E+01   1.277186E+01   1.277186E+01   1.277186E+01   1.872720E+01   1.872720E+01   1.872720E+01   1.872720E+01   1.872720E+01   6.741492E+01   6.741492E+01   6.741492E+01   6.741492E+01   9.605388E+01   9.605388E+01   9.605388E+01   4.813549E+01   4.813549E+01   2.656666E+02   2.656666E+02   1.756316E+02   1.756316E+02   1.053431E+02   2.946073E+01   6.422165E+01   6.422165E+01   6.730964E+01   5.008298E+01   3.357096E+01   4.226757E+01   3.698615E+01   1.757564E+01   3.523095E+01   8.443913E+01   8.676823E+01   8.730147E+01   7.614447E+01   6.242489E+01   4.038850E+01   2.999004E+01   3.204540E+01   1.687083E+01   4.719812E+01   6.352857E+01   8.105018E+01   3.650579E+01   6.617054E+01   6.308843E+01   1.611868E+01   4.287486E+01   2.490983E+01   4.438051E+01   3.414019E+01   3.026497E+01   1.445406E+01   1.285714E+01   3.806894E+01   3.176310E+01   1.254314E+02   5.509064E+01   3.210796E+01   9.981056E+00   7.971659E+01   5.902355E+01   6.606661E+01
   3.032732E+01   9.388765E+00   2.281640E+01   5.132909E+01   8.869392E+01   2.432043E+02   1.545685E+02   2.001937E+01   1.580892E+01   1.750925E+01   2.542513E+01   2.773995E+01   1.947044E+01   5.021945E+01   9.301698E+01   2.781865E+01   1.792594E+01   1.175292E+01   3.676400E+01   5.350625E+01   5.091656E+01   7.210783E+01   5.788115E+01   2.135550E+01   4.102920E+01   5.507055E+01   5.957614E+01   5.066717E+01   4.336684E+01   2.408396E+01   1.899244E+01   7.097949E+01   1.435992E+02   2.458536E+02   1.034491E+02   5.936457E+01   2.585457E+01   3.154310E+01   2.899930E+01   4.074532E+01   1.664005E+01   2.325206E+01   2.432671E+01   1.300316E+01   3.589278E+01   4.708936E+01   8.477792E+01   1.038361E+02   4.924152E+01   1.871255E+01   1.200707E+01   1.815206E+01   2.693845E+01   2.088727E+01   4.584095E+01   7.789169E+01   3.325354E+01   3.847560E+01   3.037419E+01   3.203993E+01   1.736774E+01   1.170343E+01   3.979893E+01   2.117597E+01   1.897947E+01   1.810445E+01   1.652736E+01   4.117716E+01   6.886143E+01   2.371469E+02   2.257817E+02   1.369847E+02   3.896014E+01   9.592475E+01   8.680480E+01   5.574819E+01   2.285874E+01   2.285155E+01   1.333375E+01   5.080132E+00   6.834702E+00   1.213489E+01   3.494962E+01   3.159018E+01   7.881823E+01   6.913525E+01   4.509905E+01   1.929322E+01   1.384917E+01   5.892578E+00   5.892578E+00   4.557032E+00   1.549280E+00   1.549280E+00   1.791385E+00   3.628625E+00   3.628625E+00   3.704223E+01   3.704223E+01   3.704223E+01   3.270208E+01   3.270208E+01   3.270208E+01   2.613004E+01   2.613004E+01   2.613004E+01   2.613004E+01   2.613004E+01   5.433976E+01   5.433976E+01   5.433976E+01   5.433976E+01   5.433976E+01   4.028182E+01   4.028182E+01   4.028182E+01   4.028182E+01   4.028182E+01   4.028182E+01   4.028182E+01   9.836652E+00   9.836652E+00   9.836652E+00   9.836652E+00   9.836652E+00   9.836652E+00   9.836652E+00   9.836652E+00   9.836652E+00   9.836652E+00   1.940689E+01   1.940689E+01   1.940689E+01   1.940689E+01   1.940689E+01   1.940689E+01   1.940689E+01   1.940689E+01   1.940689E+01   1.886771E+01   1.886771E+01   1.886771E+01   1.886771E+01   1.886771E+01   1.886771E+01   1.886771E+01   3.310112E+01   3.310112E+01   3.310112E+01   3.310112E+01   3.310112E+01   1.155464E+02   1.155464E+02   1.155464E+02   1.155464E+02   1.433100E+02   1.433100E+02   1.433100E+02   1.246919E+02   1.246919E+02   1.854575E+02   1.854575E+02   3.008781E+02   3.008781E+02   6.901921E+01   5.707220E+01   4.581683E+01   4.581683E+01   8.345712E+01   6.918679E+01   3.955487E+01   5.070195E+01   2.549000E+01   1.759332E+01   3.521181E+01   5.398876E+01   6.309755E+01   7.747462E+01   1.267833E+02   7.240733E+01   4.820927E+01   2.542445E+01   3.705088E+01   5.699424E+01   4.963777E+01   6.499055E+01   6.123458E+01   5.540647E+01   4.521885E+01   7.268970E+01   1.115029E+01   2.707563E+01   3.897372E+01   5.737930E+01   5.639330E+01   4.447491E+01   2.301087E+01   1.385090E+01   1.741286E+01   4.123439E+01   1.227279E+02   8.711012E+01   2.893537E+01   2.178878E+01   1.112904E+02   9.310847E+01   5.177225E+01
   9.561401E+01   2.681346E+01   2.545656E+01   6.458668E+01   7.582028E+01   4.171471E+02   7.012309E+01   6.969128E+01   2.089680E+01   2.529596E+01   1.006890E+01   2.410137E+01   1.878779E+01   6.431655E+01   1.674554E+02   3.464683E+01   4.062386E+01   8.547676E+00   1.695935E+01   2.474970E+01   5.809018E+01   1.257731E+02   4.565833E+01   3.745552E+01   4.298126E+01   5.162117E+01   8.155062E+01   7.495074E+01   3.623888E+01   2.182443E+01   4.484369E+01   5.533216E+01   9.412090E+01   2.045599E+02   8.558482E+01   6.497689E+01   2.800930E+01   5.124089E+01   9.882224E+01   3.623963E+01   3.601104E+01   1.821836E+01   1.414720E+01   1.414647E+01   2.092001E+01   5.076144E+01   7.271593E+01   3.976797E+01   3.540327E+01   1.037833E+01   9.918578E+00   1.577068E+01   1.524224E+01   2.117156E+01   4.130402E+01   6.914139E+01   3.582091E+01   5.609640E+01   3.298648E+01   4.389528E+01   2.510536E+01   1.283986E+01   9.145159E+01   3.305786E+01   2.467520E+01   1.993750E+01   1.587799E+01   5.024496E+01   4.180892E+01   2.693490E+02   3.268300E+02   1.232270E+02   1.012951E+02   7.347630E+01   6.351935E+01   4.494960E+01   2.581804E+01   3.590844E+01   1.665035E+01   9.646261E+00   1.137638E+01   1.298922E+01   2.604730E+01   1.957306E+01   4.539018E+01   2.921446E+01   2.704995E+01   7.798602E+00   5.058658E+00   3.452115E+00   3.452115E+00   6.281892E+00   2.100078E+00   2.100078E+00   1.425881E+00   6.062460E+00   6.062460E+00   2.802796E+01   2.802796E+01   2.802796E+01   3.444977E+01   3.444977E+01   3.444977E+01   5.235153E+01   5.235153E+01   5.235153E+01   5.235153E+01   5.235153E+01   1.031778E+02   1.031778E+02   1.031778E+02   1.031778E+02   1.031778E+02   7.800620E+01   7.800620E+01   7.800620E+01   7.800620E+01   7.800620E+01   7.800620E+01   7.800620E+01   1.401177E+01   1.401177E+01   1.401177E+01   1.401177E+01   1.401177E+01   1.401177E+01   1.401177E+01   1.401177E+01   1.401177E+01   1.401177E+01   3.496463E+01   3.496463E+01   3.496463E+01   3.496463E+01   3.496463E+01   3.496463E+01   3.496463E+01   3.496463E+01   3.496463E+01   2.585894E+01   2.585894E+01   2.585894E+01   2.585894E+01   2.585894E+01   2.585894E+01   2.585894E+01   6.011774E+01   6.011774E+01   6.011774E+01   6.011774E+01   6.011774E+01   8.147096E+01   8.147096E+01   8.147096E+01   8.147096E+01   6.932774E+01   6.932774E+01   6.932774E+01   9.242270E+01   9.242270E+01   2.427631E+02   2.427631E+02   2.130783E+02   2.130783E+02   1.334695E+02   8.416886E+01   7.865828E+01   7.865828E+01   1.832987E+02   2.373256E+02   6.585395E+01   7.505022E+01   2.034399E+01   9.674356E+00   4.352924E+01   5.294467E+01   9.724101E+01   8.948717E+01   1.594834E+02   1.689950E+02   6.404131E+01   6.712616E+01   6.515702E+01   7.872061E+01   1.402623E+02   1.324962E+02   5.160992E+01   3.093037E+01   3.041242E+01   5.169514E+01   1.463284E+01   2.389597E+01   3.723273E+01   5.367376E+01   6.025217E+01   5.540295E+01   4.485312E+01   6.489448E+01   2.709446E+01   9.530923E+01   1.155793E+02   1.328030E+02   4.071934E+01   7.340104E+01   1.565325E+02   5.767833E+01   3.277891E+01
   7.355099E+01   7.741705E+01   3.285292E+01   1.007488E+02   6.675710E+01   1.998786E+02   2.181828E+01   3.415553E+01   3.109459E+01   2.515600E+01   1.043900E+01   1.728895E+01   1.912324E+01   1.729130E+02   1.114145E+02   3.633607E+01   5.764059E+01   1.693708E+01   1.717037E+01   3.082574E+01   4.020624E+01   5.351720E+01   2.973382E+01   4.203423E+01   3.777219E+01   7.293713E+01   4.942625E+01   4.959772E+01   4.092776E+01   2.240701E+01   1.604447E+01   3.158723E+01   1.148217E+02   1.224292E+02   3.201905E+02   6.031738E+01   3.387062E+01   2.952019E+01   8.188976E+01   5.086260E+01   3.425406E+01   1.330707E+01   1.186739E+01   5.671386E+00   3.684477E+01   6.031782E+01   4.350540E+01   2.310205E+01   7.530817E+01   1.006880E+01   1.227467E+01   1.541527E+01   1.445636E+01   4.176988E+01   2.149933E+01   4.866996E+01   3.375930E+01   3.126281E+01   2.523195E+01   8.791399E+01   5.112498E+01   1.111658E+01   3.266108E+01   4.365264E+01   3.141440E+01   2.902705E+01   1.145734E+01   2.183342E+01   3.481277E+01   1.848744E+02   1.932162E+02   5.741045E+01   1.043331E+02   4.336097E+01   2.713899E+01   3.542830E+01   1.247968E+01   3.952941E+01   6.030775E+01   6.994679E+00   1.192289E+01   1.500377E+01   1.758253E+01   2.061007E+01   3.239881E+01   1.241447E+01   5.183657E+01   6.908433E+00   2.969803E+00   3.323487E+00   3.323487E+00   5.569263E+00   1.948702E+00   1.948702E+00   2.665249E+00   1.106977E+01   1.106977E+01   2.091828E+01   2.091828E+01   2.091828E+01   2.973759E+01   2.973759E+01   2.973759E+01   5.591533E+01   5.591533E+01   5.591533E+01   5.591533E+01   5.591533E+01   5.589602E+01   5.589602E+01   5.589602E+01   5.589602E+01   5.589602E+01   7.285564E+01   7.285564E+01   7.285564E+01   7.285564E+01   7.285564E+01   7.285564E+01   7.285564E+01   4.631855E+01   4.631855E+01   4.631855E+01   4.631855E+01   4.631855E+01   4.631855E+01   4.631855E+01   4.631855E+01   4.631855E+01   4.631855E+01   5.618567E+01   5.618567E+01   5.618567E+01   5.618567E+01   5.618567E+01   5.618567E+01   5.618567E+01   5.618567E+01   5.618567E+01   6.601711E+01   6.601711E+01   6.601711E+01   6.601711E+01   6.601711E+01   6.601711E+01   6.601711E+01   6.816651E+01   6.816651E+01   6.816651E+01   6.816651E+01   6.816651E+01   1.276509E+02   1.276509E+02   1.276509E+02   1.276509E+02   1.165769E+02   1.165769E+02   1.165769E+02   1.591680E+02   1.591680E+02   2.341002E+02   2.341002E+02   1.929067E+02   1.929067E+02   9.918816E+01   1.812771E+02   1.071198E+02   1.071198E+02   2.326195E+02   2.336984E+02   6.751559E+01   4.561277E+01   1.191669E+01   1.350978E+01   4.823153E+01   1.611739E+02   1.290440E+02   7.947678E+01   1.158075E+02   1.086296E+02   7.659622E+01   6.363086E+01   6.568655E+01   8.662492E+01   8.818606E+01   1.333701E+02   1.097415E+02   3.382022E+01   2.940719E+01   3.811888E+01   3.286422E+01   1.508402E+01   8.419302E+01   3.872876E+01   6.429699E+01   5.413553E+01   6.191362E+01   7.492709E+01   7.309828E+01   8.666904E+01   9.191498E+01   1.307988E+02   1.164575E+02   6.086063E+01   7.837115E+01   4.668322E+01   2.427941E+01
   9.336192E+01   9.012029E+01   2.889803E+01   5.929758E+01   1.079656E+02   2.103608E+02   2.588784E+01   2.266375E+01   3.133889E+01   1.921760E+01   5.305329E+00   1.405306E+01   2.966054E+01   1.673043E+02   1.023731E+02   5.857356E+01   3.964557E+01   1.435990E+01   3.334824E+01   2.247538E+01   2.859378E+01   3.771246E+01   2.346970E+01   3.887796E+01   6.583802E+01   4.409974E+01   8.344254E+01   5.155305E+01   4.398014E+01   3.350763E+01   1.148881E+01   3.458712E+01   1.896515E+02   1.801091E+02   2.541318E+02   7.928707E+01   4.725778E+01   4.569411E+01   7.436080E+01   6.890128E+01   3.742077E+01   1.580915E+01   1.511349E+01   6.735725E+00   2.223879E+01   8.793365E+01   5.318866E+01   2.594668E+01   4.592585E+01   2.774162E+01   1.352101E+01   2.902019E+01   2.044696E+01   3.959704E+01   1.909871E+01   3.813340E+01   3.583742E+01   5.141751E+01   5.819970E+01   3.919097E+01   7.796409E+01   3.532028E+01   2.622060E+01   4.506871E+01   2.385409E+01   3.632948E+01   2.159531E+01   3.551338E+01   3.220256E+01   1.224847E+02   8.844008E+01   8.688734E+01   8.089630E+01   6.318478E+01   4.992545E+01   1.871565E+01   1.322637E+01   2.681172E+01   3.871370E+01   2.184189E+01   9.791766E+01   2.929251E+01   4.035353E+01   1.919120E+01   2.133071E+01   1.331056E+01   3.422682E+01   5.496474E+00   2.116656E+00   2.524770E+00   2.524770E+00   3.199517E+00   3.362144E+00   3.362144E+00   3.887128E+00   1.754472E+01   1.754472E+01   1.219150E+01   1.219150E+01   1.219150E+01   2.002880E+01   2.002880E+01   2.002880E+01   3.325066E+01   3.325066E+01   3.325066E+01   3.325066E+01   3.325066E+01   3.304099E+01   3.304099E+01   3.304099E+01   3.304099E+01   3.304099E+01   3.487185E+01   3.487185E+01   3.487185E+01   3.487185E+01   3.487185E+01   3.487185E+01   3.487185E+01   7.966107E+01   7.966107E+01   7.966107E+01   7.966107E+01   7.966107E+01   7.966107E+01   7.966107E+01   7.966107E+01   7.966107E+01   7.966107E+01   6.069180E+01   6.069180E+01   6.069180E+01   6.069180E+01   6.069180E+01   6.069180E+01   6.069180E+01   6.069180E+01   6.069180E+01   1.623610E+02   1.623610E+02   1.623610E+02   1.623610E+02   1.623610E+02   1.623610E+02   1.623610E+02   1.031965E+02   1.031965E+02   1.031965E+02   1.031965E+02   1.031965E+02   1.730259E+02   1.730259E+02   1.730259E+02   1.730259E+02   2.086775E+02   2.086775E+02   2.086775E+02   1.482825E+02   1.482825E+02   2.359816E+02   2.359816E+02   2.787166E+02   2.787166E+02   8.695541E+01   9.150823E+01   1.254525E+02   1.254525E+02   1.837149E+02   2.960841E+02   6.876888E+01   3.871434E+01   2.627735E+01   2.529292E+01   1.102939E+02   2.172703E+02   1.009467E+02   1.832107E+02   1.082648E+02   4.023041E+01   6.307383E+01   5.099758E+01   7.344524E+01   7.907992E+01   2.179964E+02   8.401205E+01   4.904690E+01   5.671040E+01   5.970092E+01   5.261386E+01   2.960286E+01   2.969980E+01   5.406851E+01   1.133020E+02   4.056431E+01   5.067945E+01   9.740234E+01   1.649758E+02   1.869787E+02   3.780405E+01   9.371367E+01   6.526004E+01   1.526624E+02   6.275917E+01   3.524791E+01   2.704276E+01   2.381403E+01
   1.809031E+02   9.360037E+01   3.250049E+01   4.686212E+01   2.782058E+02   1.413767E+02   8.274949E+01   4.987227E+01   2.950407E+01   2.284833E+01   8.844234E+00   1.710385E+01   3.444112E+01   1.440060E+02   3.831015E+01   5.806896E+01   7.535404E+01   1.239990E+01   1.303710E+01   1.092911E+01   1.592960E+01   5.851594E+01   1.300231E+01   2.261790E+01   6.570092E+01   2.180265E+01   1.036374E+02   4.947883E+01   5.050370E+01   2.673220E+01   1.642131E+01   3.791938E+01   1.636422E+02   2.441572E+02   1.784576E+02   7.838685E+01   5.415416E+01   4.570058E+01   1.192890E+02   1.379960E+02   2.471070E+01   1.823203E+01   1.550990E+01   2.935817E+01   2.867368E+01   5.944597E+01   8.414509E+01   3.362848E+01   4.645644E+01   4.913628E+01   1.600816E+01   3.052611E+01   1.350078E+01   4.609592E+01   2.885589E+01   2.338957E+01   4.455351E+01   7.451745E+01   6.209789E+01   7.853431E+01   8.705185E+01   8.793922E+01   6.087105E+01   7.243114E+01   3.169177E+01   3.814967E+01   4.131109E+01   2.552935E+01   2.574990E+01   7.230347E+01   4.269616E+01   7.259772E+01   1.001884E+02   7.139709E+01   3.680204E+01   1.749606E+01   1.745369E+01   3.389540E+01   4.375368E+01   9.302563E+01   1.114641E+02   4.799826E+01   3.001005E+01   1.446901E+01   1.543916E+01   1.173565E+01   1.494050E+01   7.209425E+00   1.784279E+00   5.194978E+00   5.194978E+00   2.744809E+00   8.311723E+00   8.311723E+00   6.457247E+00   1.335963E+01   1.335963E+01   8.962808E+00   8.962808E+00   8.962808E+00   3.214802E+01   3.214802E+01   3.214802E+01   3.260162E+01   3.260162E+01   3.260162E+01   3.260162E+01   3.260162E+01   1.918990E+01   1.918990E+01   1.918990E+01   1.918990E+01   1.918990E+01   4.402557E+01   4.402557E+01   4.402557E+01   4.402557E+01   4.402557E+01   4.402557E+01   4.402557E+01   7.387552E+01   7.387552E+01   7.387552E+01   7.387552E+01   7.387552E+01   7.387552E+01   7.387552E+01   7.387552E+01   7.387552E+01   7.387552E+01   9.706136E+01   9.706136E+01   9.706136E+01   9.706136E+01   9.706136E+01   9.706136E+01   9.706136E+01   9.706136E+01   9.706136E+01   2.122402E+02   2.122402E+02   2.122402E+02   2.122402E+02   2.122402E+02   2.122402E+02   2.122402E+02   1.883165E+02   1.883165E+02   1.883165E+02   1.883165E+02   1.883165E+02   1.521567E+02   1.521567E+02   1.521567E+02   1.521567E+02   3.262248E+02   3.262248E+02   3.262248E+02   1.330180E+02   1.330180E+02   1.379937E+02   1.379937E+02   1.461271E+02   1.461271E+02   8.941344E+01   1.212065E+02   8.646213E+01   8.646213E+01   1.356273E+02   1.527897E+02   3.366297E+01   3.051819E+01   2.923771E+01   2.801997E+01   1.004495E+02   1.955988E+02   1.088953E+02   1.740628E+02   5.336757E+01   4.891290E+01   2.935663E+01   1.998836E+01   4.720005E+01   7.699123E+01   6.678844E+01   9.705617E+01   5.015601E+01   8.518280E+01   5.259355E+01   5.096741E+01   1.925902E+01   4.335939E+01   4.034850E+01   7.167368E+01   6.260055E+01   7.973846E+01   6.112887E+01   2.039784E+02   2.373906E+02   8.017355E+01   9.315263E+01   6.382291E+01   1.376260E+02   8.608461E+01   3.857818E+01   1.556205E+01   1.630035E+01
   9.999696E+01   1.247200E+02   4.633057E+01   4.277830E+01   1.596859E+02   1.597944E+02   5.949051E+01   2.264122E+01   2.194359E+01   1.409992E+01   9.401614E+00   1.631043E+01   3.891249E+01   1.129737E+02   6.085748E+01   6.969827E+01   7.782889E+01   2.393452E+01   7.575960E+00   6.722217E+00   1.710007E+01   2.523039E+01   6.244050E+00   2.962038E+01   5.096157E+01   3.368625E+01   6.576981E+01   5.020713E+01   5.200108E+01   5.105078E+01   3.488118E+01   2.125855E+01   1.309328E+02   1.510513E+02   2.317374E+02   3.927951E+01   5.039035E+01   4.538049E+01   2.101366E+02   1.802645E+02   2.507139E+01   6.756570E+00   7.980369E+00   3.278890E+01   2.480123E+01   4.024848E+01   1.087034E+02   6.181636E+01   7.877688E+01   7.066859E+01   3.262272E+01   2.133401E+01   2.598218E+01   4.380213E+01   4.979125E+01   3.053519E+01   4.582380E+01   1.258867E+02   5.594662E+01   8.436938E+01   4.091608E+01   7.041206E+01   4.597707E+01   5.009210E+01   4.788987E+01   5.783994E+01   2.905912E+01   1.359616E+01   1.682842E+01   2.879430E+01   3.570969E+01   4.823548E+01   6.157014E+01   6.093724E+01   4.919907E+01   1.718080E+01   5.507862E+01   6.136888E+01   8.558126E+01   1.362762E+02   7.191513E+01   3.714296E+01   6.259829E+01   1.996186E+01   1.916759E+01   1.126298E+01   1.161594E+01   9.157244E+00   7.666457E+00   9.259517E+00   9.259517E+00   3.169714E+00   1.190655E+01   1.190655E+01   1.471594E+01   2.805477E+01   2.805477E+01   1.293445E+01   1.293445E+01   1.293445E+01   6.555669E+01   6.555669E+01   6.555669E+01   2.756273E+01   2.756273E+01   2.756273E+01   2.756273E+01   2.756273E+01   2.348441E+01   2.348441E+01   2.348441E+01   2.348441E+01   2.348441E+01   3.446979E+01   3.446979E+01   3.446979E+01   3.446979E+01   3.446979E+01   3.446979E+01   3.446979E+01   5.752445E+01   5.752445E+01   5.752445E+01   5.752445E+01   5.752445E+01   5.752445E+01   5.752445E+01   5.752445E+01   5.752445E+01   5.752445E+01   9.140416E+01   9.140416E+01   9.140416E+01   9.140416E+01   9.140416E+01   9.140416E+01   9.140416E+01   9.140416E+01   9.140416E+01   4.386993E+02   4.386993E+02   4.386993E+02   4.386993E+02   4.386993E+02   4.386993E+02   4.386993E+02   7.984178E+01   7.984178E+01   7.984178E+01   7.984178E+01   7.984178E+01   1.208819E+02   1.208819E+02   1.208819E+02   1.208819E+02   2.701031E+02   2.701031E+02   2.701031E+02   1.787058E+02   1.787058E+02   1.787855E+02   1.787855E+02   1.408076E+02   1.408076E+02   5.493771E+01   3.466297E+01   1.077203E+02   1.077203E+02   1.201712E+02   1.055563E+02   3.834478E+01   8.707684E+01   5.165225E+01   5.139259E+01   1.056368E+02   7.358442E+01   7.235046E+01   9.362317E+01   6.387694E+01   5.744836E+01   3.763312E+01   2.968700E+01   4.497226E+01   3.815612E+01   4.722104E+01   9.677197E+01   4.436852E+01   2.721010E+01   7.079523E+01   3.205402E+01   2.223012E+01   4.317200E+01   9.117435E+01   5.314158E+01   8.641051E+01   6.525517E+01   1.841422E+02   1.581073E+02   2.098826E+02   1.663978E+02   1.240215E+02   1.028760E+02   2.056856E+02   3.984549E+01   4.663215E+01   1.417187E+01   1.626016E+01
   5.984974E+01   5.701237E+01   4.758004E+01   3.890191E+01   1.438278E+02   1.162266E+02   5.215409E+01   3.300362E+01   1.991104E+01   2.531401E+01   1.506531E+01   8.930219E+00   2.167028E+01   5.408869E+01   4.988514E+01   9.605223E+01   4.428025E+01   1.028185E+01   7.977724E+00   3.167515E+00   2.613167E+01   1.796449E+01   1.142634E+01   2.463040E+01   5.063838E+01   8.515855E+01   3.003435E+02   1.883819E+02   1.288320E+02   4.016550E+01   3.591491E+01   4.616102E+01   5.621931E+01   5.692772E+01   5.929432E+01   2.227713E+01   4.487387E+01   6.409223E+01   2.454643E+02   9.510120E+01   3.359200E+01   6.880010E+00   1.192244E+01   4.298574E+01   3.115343E+01   5.994966E+01   1.593510E+02   1.718846E+02   7.183584E+01   4.921276E+01   5.226025E+01   2.220939E+01   9.825781E+00   3.581464E+01   2.445596E+01   3.244678E+01   4.162745E+01   6.837917E+01   2.364470E+01   3.506798E+01   4.065387E+01   1.021309E+02   9.697141E+01   3.599591E+01   2.866169E+01   5.448165E+01   2.067653E+01   8.884982E+00   1.069885E+01   5.006719E+01   3.865591E+01   6.931921E+01   1.362463E+02   5.059165E+01   6.367387E+01   2.336190E+01   5.680117E+01   5.524467E+01   7.673373E+01   1.253747E+02   7.594875E+01   5.646109E+01   3.004807E+01   4.611238E+01   2.717467E+01   2.413861E+01   1.376076E+01   1.071545E+01   1.843370E+01   1.060895E+01   1.060895E+01   5.050581E+00   1.944235E+01   1.944235E+01   1.518983E+01   1.064222E+01   1.064222E+01   8.911752E+00   8.911752E+00   8.911752E+00   3.486062E+01   3.486062E+01   3.486062E+01   2.408920E+01   2.408920E+01   2.408920E+01   2.408920E+01   2.408920E+01   1.526951E+01   1.526951E+01   1.526951E+01   1.526951E+01   1.526951E+01   4.225664E+01   4.225664E+01   4.225664E+01   4.225664E+01   4.225664E+01   4.225664E+01   4.225664E+01   8.059331E+01   8.059331E+01   8.059331E+01   8.059331E+01   8.059331E+01   8.059331E+01   8.059331E+01   8.059331E+01   8.059331E+01   8.059331E+01   1.268214E+02   1.268214E+02   1.268214E+02   1.268214E+02   1.268214E+02   1.268214E+02   1.268214E+02   1.268214E+02   1.268214E+02   2.239637E+02   2.239637E+02   2.239637E+02   2.239637E+02   2.239637E+02   2.239637E+02   2.239637E+02   5.271716E+01   5.271716E+01   5.271716E+01   5.271716E+01   5.271716E+01   5.822972E+01   5.822972E+01   5.822972E+01   5.822972E+01   8.439468E+01   8.439468E+01   8.439468E+01   1.365395E+02   1.365395E+02   7.063512E+01   7.063512E+01   9.918554E+01   9.918554E+01   5.985730E+01   6.800320E+01   3.331182E+01   3.331182E+01   6.749700E+01   1.081573E+02   5.523380E+01   5.185172E+01   5.220496E+01   9.365624E+01   3.341275E+01   7.524216E+01   6.736229E+01   6.099631E+01   6.838396E+01   3.384565E+01   2.040629E+01   2.884768E+01   3.323848E+01   2.915568E+01   2.642655E+01   2.022770E+01   2.539401E+01   1.964060E+01   2.715153E+01   6.523997E+01   3.692315E+01   2.711408E+01   2.627237E+01   4.931449E+01   6.205968E+01   4.489594E+01   1.351818E+02   2.630368E+02   2.152836E+02   4.212719E+02   1.692464E+02   7.078662E+01   7.748885E+01   1.471662E+01   2.166979E+01   1.414225E+01   1.618214E+01