# LPF package for  MODFLOW-2005, generated by Flopy.
        53    -1E+30         0  
         1
         0
   0.000000E+00
         0
         0
INTERNAL               1 (207E15.6) -1 #hk layer 1                    
   3.851482E+02   3.298830E+02   1.628143E+02   2.777520E+01   1.871807E+01   7.815005E+01   6.316864E+01   6.795264E+01   3.688578E+01   1.550585E+02   7.965497E+01   2.309354E+01   1.925703E+01   2.513495E+01   5.602473E+01   7.947173E+01   1.259141E+02   1.099708E+02   1.321148E+02   5.132927E+01   4.091220E+01   3.987273E+01   6.716495E+01   4.230582E+01   4.143183E+01   7.190070E+01   2.190005E+02   3.050256E+02   2.998603E+01   6.407941E+01   5.554846E+01   5.567205E+01   4.885680E+01   6.487740E+01   1.349745E+02   4.919845E+01   3.728237E+01   1.005435E+02   1.740741E+02   1.534560E+02   3.463765E+02   3.435846E+02   2.584346E+02   1.060711E+02   7.365749E+01   4.902689E+01   1.278461E+02   1.407853E+02   8.174477E+01   1.359342E+02   6.557257E+01   4.351406E+01   4.559672E+01   5.086465E+01   2.739941E+01   2.084882E+01   2.831394E+01   5.929011E+01   3.638834E+01   2.143167E+01   2.352034E+01   2.351311E+01   4.102800E+01   8.455148E+01   2.513791E+02   1.447381E+02   1.485346E+02   3.511236E+02   2.718806E+02   3.520938E+02   2.697733E+02   1.908711E+02   2.941389E+02   1.566990E+02   7.251051E+01   7.775452E+01   1.296349E+02   1.652515E+02   4.235538E+01   1.008206E+02   2.449079E+02   4.083870E+02   6.647938E+02   2.562309E+02   3.367515E+02   2.416912E+02   3.717666E+02   1.380492E+02   9.914194E+01   9.506546E+01   9.506546E+01   8.062377E+01   1.227582E+02   1.227582E+02   4.379034E+01   4.670373E+01   4.670373E+01   3.113396E+01   3.113396E+01   3.113396E+01   5.632839E+01   5.632839E+01   5.632839E+01   1.926613E+02   1.926613E+02   1.926613E+02   1.926613E+02   1.926613E+02   1.945982E+02   1.945982E+02   1.945982E+02   1.945982E+02   1.945982E+02   7.441424E+01   7.441424E+01   7.441424E+01   7.441424E+01   7.441424E+01   7.441424E+01   7.441424E+01   4.862186E+01   4.862186E+01   4.862186E+01   4.862186E+01   4.862186E+01   4.862186E+01   4.862186E+01   4.862186E+01   4.862186E+01   4.862186E+01   6.729976E+01   6.729976E+01   6.729976E+01   6.729976E+01   6.729976E+01   6.729976E+01   6.729976E+01   6.729976E+01   6.729976E+01   6.212217E+01   6.212217E+01   6.212217E+01   6.212217E+01   6.212217E+01   6.212217E+01   6.212217E+01   9.029284E+01   9.029284E+01   9.029284E+01   9.029284E+01   9.029284E+01   2.123904E+02   2.123904E+02   2.123904E+02   2.123904E+02   2.886926E+02   2.886926E+02   2.886926E+02   2.387384E+02   2.387384E+02   2.078344E+02   2.078344E+02   2.240562E+02   2.240562E+02   3.369928E+02   2.702826E+02   2.880110E+02   2.880110E+02   1.106551E+02   1.253556E+02   3.328743E+01   2.101849E+01   1.154103E+01   2.111840E+01   5.059930E+01   1.327589E+02   4.014378E+02   1.024487E+02   3.704235E+01   3.217214E+01   2.485549E+01   3.460847E+01   4.122083E+01   7.460979E+01   5.607492E+01   4.214096E+01   4.061993E+01   8.640757E+01   6.589661E+01   2.365081E+01   5.405157E+01   7.811459E+01   3.392081E+01   3.156361E+01   2.734290E+01   1.204203E+01   2.735114E+01   4.102709E+01   9.158833E+01   9.777381E+01   1.280396E+02   2.715121E+02   7.752435E+01   7.614922E+01   5.132071E+01   8.116974E+01   1.055407E+02
   2.118537E+02   1.636187E+02   1.912831E+02   1.835769E+01   2.144944E+01   6.663206E+01   6.030279E+01   6.280528E+01   4.883759E+01   9.895365E+01   1.061746E+02   4.803173E+01   2.913923E+01   3.579985E+01   7.780646E+01   5.028421E+01   5.862395E+01   6.303569E+01   1.142000E+02   7.347536E+01   9.709732E+01   5.261644E+01   9.099445E+01   1.050361E+02   6.325470E+01   6.052486E+01   2.348500E+02   6.726295E+02   6.849903E+01   5.839513E+01   7.918545E+01   6.336747E+01   4.910748E+01   6.670271E+01   1.878255E+02   8.602750E+01   2.857220E+01   2.197145E+02   3.145971E+02   1.961455E+02   2.198853E+02   4.880838E+02   1.568398E+02   7.869814E+01   1.338387E+02   6.032895E+01   6.951225E+01   1.246335E+02   8.307974E+01   1.157559E+02   7.404277E+01   3.654636E+01   6.172102E+01   6.006887E+01   4.276737E+01   2.037594E+01   2.398073E+01   4.049620E+01   2.734532E+01   1.259832E+01   1.191204E+01   2.717874E+01   5.075864E+01   2.138119E+02   1.393367E+02   9.624964E+01   1.913291E+02   1.801906E+02   3.353259E+02   4.682350E+02   4.276989E+02   3.010157E+02   1.060506E+02   1.576609E+02   5.372417E+01   1.085866E+02   1.947185E+02   1.760217E+02   1.047271E+02   1.035349E+02   9.731654E+01   3.645288E+02   2.596263E+02   2.165167E+02   2.498498E+02   1.415130E+02   1.089609E+02   6.786047E+01   1.470146E+02   1.511719E+02   1.511719E+02   2.804955E+02   1.648343E+02   1.648343E+02   3.671309E+01   2.463297E+01   2.463297E+01   3.259823E+01   3.259823E+01   3.259823E+01   4.138012E+01   4.138012E+01   4.138012E+01   2.394934E+02   2.394934E+02   2.394934E+02   2.394934E+02   2.394934E+02   1.596069E+02   1.596069E+02   1.596069E+02   1.596069E+02   1.596069E+02   9.463930E+01   9.463930E+01   9.463930E+01   9.463930E+01   9.463930E+01   9.463930E+01   9.463930E+01   3.528822E+01   3.528822E+01   3.528822E+01   3.528822E+01   3.528822E+01   3.528822E+01   3.528822E+01   3.528822E+01   3.528822E+01   3.528822E+01   4.151288E+01   4.151288E+01   4.151288E+01   4.151288E+01   4.151288E+01   4.151288E+01   4.151288E+01   4.151288E+01   4.151288E+01   6.258941E+01   6.258941E+01   6.258941E+01   6.258941E+01   6.258941E+01   6.258941E+01   6.258941E+01   1.488502E+02   1.488502E+02   1.488502E+02   1.488502E+02   1.488502E+02   2.442143E+02   2.442143E+02   2.442143E+02   2.442143E+02   2.984137E+02   2.984137E+02   2.984137E+02   1.513698E+02   1.513698E+02   1.355078E+02   1.355078E+02   1.384464E+02   1.384464E+02   2.220536E+02   3.107732E+02   3.927912E+02   3.927912E+02   6.367554E+01   8.816391E+01   2.550547E+01   7.929576E+00   4.277839E+00   1.046003E+01   2.645221E+01   2.878907E+02   4.758665E+02   1.465304E+02   3.963316E+01   4.365965E+01   6.069396E+01   3.922290E+01   6.246403E+01   9.951008E+01   6.384795E+01   3.839105E+01   5.581869E+01   7.172726E+01   9.681356E+01   3.441415E+01   1.541276E+02   9.332472E+01   9.517417E+01   4.725153E+01   4.453561E+01   2.391622E+01   2.760754E+01   6.873439E+01   2.160616E+02   1.628945E+02   1.057960E+02   2.901975E+02   1.090451E+02   1.335495E+02   1.130664E+02   1.093415E+02   1.339494E+02
   1.942425E+02   1.883768E+02   1.451295E+02   2.116694E+01   3.423973E+01   4.622086E+01   4.998185E+01   4.385687E+01   3.515634E+01   7.318936E+01   1.414055E+02   5.992339E+01   1.731176E+01   2.913603E+01   3.977247E+01   3.207126E+01   9.287731E+01   5.372089E+01   7.649600E+01   1.191234E+02   1.673051E+02   2.530340E+02   1.451171E+02   2.192755E+02   1.195643E+02   2.215884E+02   1.381067E+02   3.568774E+02   9.513870E+01   9.815742E+01   4.762807E+01   6.321585E+01   5.797081E+01   5.468478E+01   2.613169E+02   6.656441E+01   4.336001E+01   1.551327E+02   1.847399E+02   1.935677E+02   2.701796E+02   5.842884E+02   1.156014E+02   9.574094E+01   1.488166E+02   6.345868E+01   5.467575E+01   2.024153E+02   1.376504E+02   1.367840E+02   1.532661E+02   4.982256E+01   9.584893E+01   9.491808E+01   4.576542E+01   2.627291E+01   1.653768E+01   3.878313E+01   2.387561E+01   1.003134E+01   1.247190E+01   4.571729E+01   4.762233E+01   8.034290E+01   1.347627E+02   8.879236E+01   2.387397E+02   1.812496E+02   2.356415E+02   2.612361E+02   4.203465E+02   1.781964E+02   1.328744E+02   1.284805E+02   8.529005E+01   8.293144E+01   1.587427E+02   1.806115E+02   8.495325E+01   6.122651E+01   1.342634E+02   1.528132E+02   3.137054E+02   2.423611E+02   1.859092E+02   1.035894E+02   8.297771E+01   9.356059E+01   1.539676E+02   1.450036E+02   1.450036E+02   2.472067E+02   1.243046E+02   1.243046E+02   2.513760E+01   1.531591E+01   1.531591E+01   2.454934E+01   2.454934E+01   2.454934E+01   4.414840E+01   4.414840E+01   4.414840E+01   8.973631E+01   8.973631E+01   8.973631E+01   8.973631E+01   8.973631E+01   1.148912E+02   1.148912E+02   1.148912E+02   1.148912E+02   1.148912E+02   1.142383E+02   1.142383E+02   1.142383E+02   1.142383E+02   1.142383E+02   1.142383E+02   1.142383E+02   5.246997E+01   5.246997E+01   5.246997E+01   5.246997E+01   5.246997E+01   5.246997E+01   5.246997E+01   5.246997E+01   5.246997E+01   5.246997E+01   3.448277E+01   3.448277E+01   3.448277E+01   3.448277E+01   3.448277E+01   3.448277E+01   3.448277E+01   3.448277E+01   3.448277E+01   5.392381E+01   5.392381E+01   5.392381E+01   5.392381E+01   5.392381E+01   5.392381E+01   5.392381E+01   8.374315E+01   8.374315E+01   8.374315E+01   8.374315E+01   8.374315E+01   2.267539E+02   2.267539E+02   2.267539E+02   2.267539E+02   1.034358E+02   1.034358E+02   1.034358E+02   7.811405E+01   7.811405E+01   2.554942E+02   2.554942E+02   1.376835E+02   1.376835E+02   1.114588E+02   1.247771E+02   2.159717E+02   2.159717E+02   1.028623E+02   6.051378E+01   1.086841E+01   7.105797E+00   7.298085E+00   8.729489E+00   1.641740E+01   1.940992E+02   1.403733E+02   2.359187E+02   3.323146E+01   2.429030E+01   9.033593E+01   3.789372E+01   7.964691E+01   1.258927E+02   5.118800E+01   3.440339E+01   8.267567E+01   6.628511E+01   3.884442E+01   6.548775E+01   3.713622E+02   2.790603E+02   2.958857E+02   6.018925E+01   9.561546E+01   9.130838E+01   3.181137E+01   6.659510E+01   1.894515E+02   1.024107E+02   5.732464E+01   1.402012E+02   6.325758E+01   9.765687E+01   1.497263E+02   7.789523E+01   1.184406E+02
   1.453946E+02   1.531856E+02   1.847231E+02   5.958002E+01   2.675896E+01   2.094764E+01   3.851602E+01   5.988026E+01   3.134375E+01   7.055846E+01   1.366894E+02   7.425575E+01   3.461884E+01   3.227332E+01   2.379372E+01   3.133295E+01   5.827489E+01   4.787745E+01   9.931556E+01   1.810930E+02   2.738299E+02   2.601799E+02   2.798052E+02   3.823336E+02   5.815431E+02   3.328400E+02   1.393276E+02   1.200509E+02   1.115556E+02   1.516554E+02   1.056833E+02   6.921117E+01   1.503897E+02   8.577012E+01   3.608451E+02   9.206331E+01   1.409463E+02   1.118231E+02   6.645863E+01   1.764660E+02   1.566707E+02   2.463222E+02   9.942332E+01   1.201291E+02   8.163419E+01   8.665884E+01   1.847798E+02   9.050026E+01   7.791859E+01   1.415194E+02   6.578393E+01   5.384769E+01   3.894500E+01   3.913292E+01   5.267914E+01   3.324085E+01   3.129527E+01   3.712798E+01   7.606425E+01   2.380901E+01   3.589875E+01   4.545281E+01   5.288347E+01   1.024869E+02   1.694848E+02   6.724387E+01   4.838481E+02   2.304521E+02   2.247488E+02   2.639100E+02   2.179496E+02   1.857191E+02   1.132491E+02   8.686897E+01   6.231738E+01   1.621153E+02   1.613655E+02   1.141162E+02   8.944356E+01   7.167914E+01   3.297039E+02   2.284412E+02   6.317505E+02   1.627723E+02   8.326736E+01   9.920671E+01   1.007507E+02   5.507564E+01   1.034390E+02   1.636980E+02   1.636980E+02   3.387772E+02   7.782188E+01   7.782188E+01   3.579531E+01   1.005206E+01   1.005206E+01   2.710122E+01   2.710122E+01   2.710122E+01   3.956759E+01   3.956759E+01   3.956759E+01   4.196493E+01   4.196493E+01   4.196493E+01   4.196493E+01   4.196493E+01   8.381152E+01   8.381152E+01   8.381152E+01   8.381152E+01   8.381152E+01   2.101872E+02   2.101872E+02   2.101872E+02   2.101872E+02   2.101872E+02   2.101872E+02   2.101872E+02   6.024760E+01   6.024760E+01   6.024760E+01   6.024760E+01   6.024760E+01   6.024760E+01   6.024760E+01   6.024760E+01   6.024760E+01   6.024760E+01   6.506959E+01   6.506959E+01   6.506959E+01   6.506959E+01   6.506959E+01   6.506959E+01   6.506959E+01   6.506959E+01   6.506959E+01   2.344162E+02   2.344162E+02   2.344162E+02   2.344162E+02   2.344162E+02   2.344162E+02   2.344162E+02   7.391056E+01   7.391056E+01   7.391056E+01   7.391056E+01   7.391056E+01   1.459233E+02   1.459233E+02   1.459233E+02   1.459233E+02   8.446398E+01   8.446398E+01   8.446398E+01   1.260853E+02   1.260853E+02   1.314017E+02   1.314017E+02   1.381617E+02   1.381617E+02   4.053854E+01   1.399379E+02   2.773093E+02   2.773093E+02   1.254670E+02   4.373428E+01   2.501347E+01   2.074470E+01   8.538910E+00   7.178627E+00   1.188065E+01   5.053027E+01   7.113667E+01   1.200459E+02   3.084461E+01   9.794194E+00   6.431065E+01   6.078429E+01   7.451021E+01   1.385955E+02   3.836773E+01   8.759011E+01   2.865444E+01   5.985536E+01   7.995855E+01   6.281124E+01   1.637894E+02   3.111898E+02   2.559933E+02   1.721628E+02   8.981881E+01   1.407056E+02   2.292055E+01   5.564481E+01   2.224297E+02   3.724791E+01   2.754157E+01   1.236202E+02   7.063657E+01   3.553327E+01   9.624812E+01   5.690598E+01   1.692179E+02
   1.462531E+02   1.785777E+02   1.591230E+02   4.052974E+01   2.623414E+01   1.230500E+01   5.358004E+01   2.902499E+01   2.451121E+01   9.877197E+01   1.710014E+02   8.873081E+01   4.029162E+01   4.602248E+01   1.982785E+01   3.249839E+01   2.426499E+01   5.112875E+01   1.162059E+02   2.004743E+02   1.002314E+02   9.998174E+01   4.825388E+02   5.746721E+02   5.573672E+02   3.372836E+02   1.880885E+02   8.396845E+01   5.861209E+01   5.292978E+01   1.309854E+02   5.805611E+01   2.025133E+02   1.015559E+02   2.961728E+02   1.713970E+02   1.565130E+02   7.978932E+01   2.996254E+01   8.513796E+01   9.543191E+01   1.328663E+02   1.486244E+02   6.781362E+01   5.324040E+01   5.441471E+01   1.203432E+02   1.052427E+02   1.165599E+02   5.640110E+01   2.114865E+01   3.235115E+01   3.070932E+01   2.903693E+01   7.668796E+01   4.591737E+01   6.672598E+01   2.282760E+02   8.460018E+01   1.932939E+01   2.395956E+01   2.741236E+01   6.820834E+01   6.855147E+01   1.096691E+02   1.117034E+02   4.009479E+02   1.836971E+02   1.808154E+02   1.558459E+02   2.042339E+02   2.832553E+02   1.639867E+02   9.735301E+01   1.446579E+02   7.210944E+01   8.475636E+01   1.182960E+02   7.393291E+01   8.471238E+01   2.187363E+02   2.232212E+02   1.722613E+02   5.198775E+01   4.799761E+01   4.706908E+01   5.811740E+01   8.009589E+01   6.437492E+01   1.445087E+02   1.445087E+02   3.644745E+02   8.330796E+01   8.330796E+01   1.206542E+02   9.683646E+00   9.683646E+00   1.549991E+01   1.549991E+01   1.549991E+01   3.835885E+01   3.835885E+01   3.835885E+01   4.639944E+01   4.639944E+01   4.639944E+01   4.639944E+01   4.639944E+01   1.235994E+02   1.235994E+02   1.235994E+02   1.235994E+02   1.235994E+02   2.001918E+02   2.001918E+02   2.001918E+02   2.001918E+02   2.001918E+02   2.001918E+02   2.001918E+02   6.819769E+01   6.819769E+01   6.819769E+01   6.819769E+01   6.819769E+01   6.819769E+01   6.819769E+01   6.819769E+01   6.819769E+01   6.819769E+01   1.442875E+02   1.442875E+02   1.442875E+02   1.442875E+02   1.442875E+02   1.442875E+02   1.442875E+02   1.442875E+02   1.442875E+02   2.972796E+02   2.972796E+02   2.972796E+02   2.972796E+02   2.972796E+02   2.972796E+02   2.972796E+02   8.159212E+01   8.159212E+01   8.159212E+01   8.159212E+01   8.159212E+01   1.500638E+02   1.500638E+02   1.500638E+02   1.500638E+02   1.080876E+02   1.080876E+02   1.080876E+02   7.595660E+01   7.595660E+01   1.249122E+02   1.249122E+02   5.432837E+01   5.432837E+01   2.126368E+01   6.714105E+01   1.122186E+02   1.122186E+02   5.661148E+01   4.314278E+01   1.976627E+01   1.737115E+01   1.500586E+01   1.838600E+01   3.089811E+01   3.049565E+01   9.249853E+01   1.028436E+02   3.659339E+01   1.655546E+01   3.011870E+01   1.464848E+02   1.046459E+02   6.469380E+01   2.288284E+01   3.710099E+01   3.116706E+01   3.982402E+01   4.560233E+01   1.074431E+02   1.562417E+02   1.629932E+02   3.247169E+02   4.174338E+02   8.101928E+01   8.104768E+01   2.613940E+01   3.242487E+01   1.445724E+02   4.393964E+01   6.489281E+01   1.149140E+02   7.521542E+01   8.054987E+01   5.136263E+01   1.323604E+02   1.160212E+02
   1.287907E+02   1.561664E+02   3.057926E+01   2.128021E+01   3.344970E+01   2.767219E+01   5.004733E+01   4.606587E+01   3.559232E+01   1.454485E+02   1.150255E+02   1.529834E+02   4.722611E+01   1.772927E+01   1.488257E+01   3.254473E+01   1.793685E+01   2.965350E+01   1.752448E+02   1.822168E+02   6.070861E+01   6.826376E+01   2.706481E+02   2.980699E+02   2.974753E+02   2.619095E+02   1.635351E+02   5.132763E+01   4.439037E+01   3.704848E+01   1.107910E+02   1.124991E+02   1.173868E+02   1.037586E+02   1.392129E+02   1.739478E+02   1.595490E+02   3.824014E+01   2.983749E+01   3.499863E+01   5.445342E+01   2.020970E+02   8.843084E+01   9.179018E+01   4.100994E+01   5.214802E+01   7.708620E+01   9.966166E+01   2.164929E+02   1.488437E+02   4.090283E+01   4.836408E+01   1.592652E+01   2.889042E+01   1.005651E+02   4.572533E+01   1.195364E+02   4.312358E+02   1.079173E+02   4.170541E+01   3.169898E+01   1.330735E+01   6.227710E+01   6.914551E+01   1.322217E+02   1.938654E+02   1.208465E+02   9.663673E+01   1.865315E+02   1.223509E+02   1.069806E+02   2.834154E+02   4.143500E+02   1.782050E+02   2.191806E+02   5.439509E+01   7.283857E+01   4.488364E+01   1.190490E+02   1.101269E+02   1.182546E+02   1.661090E+02   3.528800E+02   5.483374E+01   5.320007E+01   9.692477E+01   7.329301E+01   1.121066E+02   6.631915E+01   1.564079E+02   1.564079E+02   4.774578E+02   1.165571E+02   1.165571E+02   6.356408E+01   1.852099E+01   1.852099E+01   1.565496E+01   1.565496E+01   1.565496E+01   2.661418E+01   2.661418E+01   2.661418E+01   8.357451E+01   8.357451E+01   8.357451E+01   8.357451E+01   8.357451E+01   1.395078E+02   1.395078E+02   1.395078E+02   1.395078E+02   1.395078E+02   2.172517E+02   2.172517E+02   2.172517E+02   2.172517E+02   2.172517E+02   2.172517E+02   2.172517E+02   1.647552E+02   1.647552E+02   1.647552E+02   1.647552E+02   1.647552E+02   1.647552E+02   1.647552E+02   1.647552E+02   1.647552E+02   1.647552E+02   7.849683E+01   7.849683E+01   7.849683E+01   7.849683E+01   7.849683E+01   7.849683E+01   7.849683E+01   7.849683E+01   7.849683E+01   2.831585E+02   2.831585E+02   2.831585E+02   2.831585E+02   2.831585E+02   2.831585E+02   2.831585E+02   8.266987E+01   8.266987E+01   8.266987E+01   8.266987E+01   8.266987E+01   9.654545E+01   9.654545E+01   9.654545E+01   9.654545E+01   9.928339E+01   9.928339E+01   9.928339E+01   1.660547E+02   1.660547E+02   1.443597E+02   1.443597E+02   5.166893E+01   5.166893E+01   2.390699E+01   4.262362E+01   5.183271E+01   5.183271E+01   3.622314E+01   4.955518E+01   2.085100E+01   1.354585E+01   1.088419E+01   3.223194E+01   6.258978E+01   6.210750E+01   6.420982E+01   7.820616E+01   2.998310E+01   2.577125E+01   4.294841E+01   2.332086E+02   1.251664E+02   9.478363E+01   6.090147E+01   4.994700E+01   3.617799E+01   1.727376E+01   1.471979E+01   4.171593E+01   8.840441E+01   2.221398E+02   4.393259E+02   3.184361E+02   9.410468E+01   1.506015E+02   9.318330E+01   6.092826E+01   3.632263E+01   5.924958E+01   8.445430E+01   4.764283E+01   5.369644E+01   1.343895E+02   4.024199E+01   1.584559E+02   4.062471E+01
   8.272475E+01   3.033172E+02   5.715384E+01   4.643019E+01   2.069613E+02   8.144892E+01   6.784539E+01   9.100687E+01   5.624261E+01   9.326694E+01   8.825581E+01   1.549806E+02   9.846928E+01   3.919265E+01   1.828059E+01   2.847806E+01   2.161049E+01   1.328680E+01   6.250750E+01   1.958964E+02   8.505502E+01   5.749641E+01   9.798625E+01   4.021555E+02   1.816802E+02   1.654381E+02   1.205327E+02   6.271055E+01   6.915935E+01   3.245522E+01   8.802409E+01   8.323151E+01   4.120863E+01   1.233353E+02   1.043041E+02   1.572117E+02   2.396733E+02   5.719749E+01   2.451693E+01   5.171061E+01   6.020487E+01   6.262371E+01   7.320253E+01   1.063151E+02   8.329570E+01   5.124985E+01   8.418303E+01   1.053179E+02   8.449598E+01   6.281057E+01   5.178420E+01   3.270433E+01   2.557967E+01   2.753463E+01   6.625061E+01   5.261249E+01   1.917970E+02   2.572775E+02   1.951458E+02   9.719169E+01   1.794990E+01   1.953172E+01   3.599939E+01   4.905376E+01   6.974777E+01   1.285505E+02   1.567223E+02   7.954972E+01   1.331128E+02   1.318554E+02   1.853917E+02   1.440554E+02   2.691360E+02   2.185605E+02   2.736569E+02   8.698758E+01   5.784084E+01   2.830259E+01   3.940327E+01   1.655867E+02   6.901410E+01   7.256902E+01   1.323243E+02   9.280400E+01   4.266683E+01   1.100984E+02   8.908791E+01   2.190762E+02   1.432259E+02   1.917138E+02   1.917138E+02   1.843771E+02   1.824609E+02   1.824609E+02   1.347167E+02   4.630496E+01   4.630496E+01   2.047864E+01   2.047864E+01   2.047864E+01   2.869577E+01   2.869577E+01   2.869577E+01   1.731367E+02   1.731367E+02   1.731367E+02   1.731367E+02   1.731367E+02   3.303932E+02   3.303932E+02   3.303932E+02   3.303932E+02   3.303932E+02   3.636841E+02   3.636841E+02   3.636841E+02   3.636841E+02   3.636841E+02   3.636841E+02   3.636841E+02   3.239824E+02   3.239824E+02   3.239824E+02   3.239824E+02   3.239824E+02   3.239824E+02   3.239824E+02   3.239824E+02   3.239824E+02   3.239824E+02   1.534382E+02   1.534382E+02   1.534382E+02   1.534382E+02   1.534382E+02   1.534382E+02   1.534382E+02   1.534382E+02   1.534382E+02   1.368283E+02   1.368283E+02   1.368283E+02   1.368283E+02   1.368283E+02   1.368283E+02   1.368283E+02   6.616068E+01   6.616068E+01   6.616068E+01   6.616068E+01   6.616068E+01   1.025049E+02   1.025049E+02   1.025049E+02   1.025049E+02   1.221751E+02   1.221751E+02   1.221751E+02   2.119299E+02   2.119299E+02   9.588656E+01   9.588656E+01   4.822100E+01   4.822100E+01   2.912343E+01   4.912573E+01   6.986593E+01   6.986593E+01   5.126503E+01   1.261170E+02   4.173710E+01   1.993894E+01   1.312622E+01   3.913602E+01   6.945203E+01   8.052200E+01   6.302689E+01   6.479359E+01   1.453657E+02   2.827732E+01   1.819192E+01   1.234536E+02   6.016908E+01   1.036207E+02   5.615663E+01   3.150885E+01   3.317889E+01   3.518124E+01   2.031926E+01   1.482337E+01   1.276282E+02   1.303595E+02   4.727391E+02   1.931439E+02   1.579464E+02   6.667719E+01   8.002527E+01   4.455157E+01   6.260821E+01   8.575205E+01   1.710448E+02   2.771314E+01   4.324542E+01   3.653431E+01   4.541681E+01   6.914236E+01   6.468456E+01
   1.734375E+02   1.508106E+02   7.238026E+01   7.555400E+01   1.286420E+02   5.152982E+01   9.007697E+01   1.233334E+02   1.162447E+02   8.726289E+01   1.029869E+02   2.976635E+02   2.079789E+02   2.265870E+01   1.175972E+01   1.279065E+01   5.826870E+00   1.408776E+01   2.838896E+01   1.575447E+02   1.117349E+02   1.356411E+02   9.863575E+01   3.291524E+02   1.412235E+02   2.595826E+02   2.094103E+02   6.624352E+01   2.899772E+01   5.344214E+01   8.259866E+01   1.469150E+02   1.224797E+02   6.885297E+01   8.493125E+01   1.945712E+02   8.602781E+01   9.111489E+01   3.818034E+01   4.549313E+01   3.131334E+01   1.622634E+01   7.000979E+01   7.471946E+01   3.857253E+01   3.654181E+01   4.485330E+01   9.638577E+01   1.112116E+02   1.325966E+02   3.463794E+01   3.263763E+01   3.291809E+01   3.074148E+01   1.385144E+02   3.155083E+01   1.771314E+02   4.346764E+02   2.471867E+02   9.473273E+01   2.818330E+01   2.685157E+01   2.340937E+01   4.531309E+01   1.002716E+02   7.134216E+01   6.521670E+01   8.211707E+01   7.051213E+01   9.021442E+01   2.719789E+02   1.061567E+02   1.541210E+02   1.003121E+02   2.217483E+02   1.289734E+02   6.705450E+01   5.193351E+01   7.132572E+01   1.320422E+02   6.798257E+01   8.640898E+01   1.063963E+02   1.082370E+02   9.595997E+01   9.208765E+01   1.322795E+02   1.710639E+02   1.291366E+02   1.599015E+02   1.599015E+02   2.193529E+02   1.492942E+02   1.492942E+02   9.064671E+01   3.078733E+01   3.078733E+01   2.982514E+01   2.982514E+01   2.982514E+01   9.966666E+01   9.966666E+01   9.966666E+01   3.746616E+02   3.746616E+02   3.746616E+02   3.746616E+02   3.746616E+02   6.075760E+02   6.075760E+02   6.075760E+02   6.075760E+02   6.075760E+02   5.873935E+02   5.873935E+02   5.873935E+02   5.873935E+02   5.873935E+02   5.873935E+02   5.873935E+02   2.546579E+02   2.546579E+02   2.546579E+02   2.546579E+02   2.546579E+02   2.546579E+02   2.546579E+02   2.546579E+02   2.546579E+02   2.546579E+02   2.596912E+02   2.596912E+02   2.596912E+02   2.596912E+02   2.596912E+02   2.596912E+02   2.596912E+02   2.596912E+02   2.596912E+02   1.531436E+02   1.531436E+02   1.531436E+02   1.531436E+02   1.531436E+02   1.531436E+02   1.531436E+02   7.147955E+01   7.147955E+01   7.147955E+01   7.147955E+01   7.147955E+01   1.425169E+02   1.425169E+02   1.425169E+02   1.425169E+02   5.495552E+01   5.495552E+01   5.495552E+01   1.407775E+02   1.407775E+02   1.781912E+02   1.781912E+02   6.762446E+01   6.762446E+01   5.875180E+01   7.220398E+01   6.935063E+01   6.935063E+01   8.108768E+01   7.616256E+01   2.534024E+01   2.187912E+01   2.114133E+01   2.993575E+01   1.276374E+02   1.270314E+02   7.192043E+01   4.343096E+01   5.829619E+01   4.292985E+01   1.789642E+01   5.026208E+01   6.542013E+01   1.285819E+02   3.940698E+01   5.257415E+01   2.920622E+01   2.418322E+01   2.496027E+01   1.569883E+01   1.902822E+02   1.744173E+02   2.373817E+02   1.740219E+02   1.735854E+02   2.167928E+02   1.452938E+02   6.633588E+01   3.526490E+01   7.734067E+01   1.391951E+02   3.654490E+01   4.729914E+01   4.717466E+01   5.057402E+01   3.456667E+01   4.725314E+01
   1.464528E+02   1.120138E+02   5.653426E+01   1.285020E+02   4.534300E+01   3.658904E+01   7.927779E+01   6.961708E+01   9.148968E+01   1.518311E+02   1.106513E+02   1.716336E+02   9.733556E+01   1.697240E+01   1.536043E+01   1.043102E+01   7.535926E+00   1.177763E+01   2.365028E+01   1.314458E+02   8.805556E+01   7.044028E+01   1.074118E+02   1.151579E+02   2.645323E+01   1.451925E+02   1.386874E+02   6.302681E+01   3.483244E+01   3.262140E+01   5.916650E+01   9.228120E+01   1.569937E+02   1.232823E+02   1.046814E+02   1.329579E+02   3.667627E+01   2.675522E+01   4.689067E+01   4.669756E+01   5.113108E+01   4.867205E+01   1.015472E+02   4.147494E+01   4.191735E+01   2.678404E+01   2.313996E+01   5.728162E+01   9.410303E+01   1.076897E+02   2.264641E+01   5.246664E+01   6.853251E+01   7.501507E+01   8.201550E+01   4.019913E+01   1.904622E+02   2.586433E+02   1.912951E+02   3.218150E+02   1.654627E+01   2.651376E+01   3.935174E+01   3.111589E+01   5.646913E+01   5.273549E+01   3.225783E+01   1.592821E+02   7.303769E+01   7.917085E+01   1.656052E+02   9.367241E+01   1.344354E+02   7.768896E+01   1.634885E+02   2.498773E+02   8.435032E+01   1.745968E+02   1.011609E+02   8.138022E+01   1.388862E+02   6.645061E+01   7.648482E+01   5.358440E+01   1.431303E+02   6.573933E+01   1.393868E+02   1.525871E+02   3.038785E+02   1.619586E+02   1.619586E+02   2.480458E+02   8.024223E+01   8.024223E+01   3.252457E+01   4.165702E+01   4.165702E+01   7.644144E+01   7.644144E+01   7.644144E+01   3.110913E+02   3.110913E+02   3.110913E+02   4.262391E+02   4.262391E+02   4.262391E+02   4.262391E+02   4.262391E+02   3.952004E+02   3.952004E+02   3.952004E+02   3.952004E+02   3.952004E+02   7.775539E+02   7.775539E+02   7.775539E+02   7.775539E+02   7.775539E+02   7.775539E+02   7.775539E+02   2.851092E+02   2.851092E+02   2.851092E+02   2.851092E+02   2.851092E+02   2.851092E+02   2.851092E+02   2.851092E+02   2.851092E+02   2.851092E+02   1.793933E+02   1.793933E+02   1.793933E+02   1.793933E+02   1.793933E+02   1.793933E+02   1.793933E+02   1.793933E+02   1.793933E+02   1.746907E+02   1.746907E+02   1.746907E+02   1.746907E+02   1.746907E+02   1.746907E+02   1.746907E+02   1.377801E+02   1.377801E+02   1.377801E+02   1.377801E+02   1.377801E+02   2.107468E+02   2.107468E+02   2.107468E+02   2.107468E+02   5.705493E+01   5.705493E+01   5.705493E+01   8.641168E+01   8.641168E+01   1.103300E+02   1.103300E+02   4.946630E+01   4.946630E+01   1.013902E+02   1.901453E+02   9.613951E+01   9.613951E+01   4.967393E+01   8.984988E+01   3.806562E+01   4.087097E+01   1.963257E+01   1.693585E+01   5.102148E+01   1.028110E+02   5.751696E+01   5.152676E+01   6.041209E+01   6.016621E+01   3.603180E+01   3.629726E+01   6.700625E+01   9.190488E+01   3.569655E+01   2.476049E+01   2.306131E+01   3.456549E+01   7.522042E+01   2.017575E+01   6.847870E+01   1.637708E+02   2.438428E+02   3.239707E+02   1.665726E+02   1.709427E+02   1.388814E+02   1.103693E+02   7.164959E+01   1.147363E+02   1.012894E+02   3.141542E+01   3.298209E+01   4.476727E+01   4.466557E+01   2.997678E+01   7.653550E+01