# LPF package for  MODFLOW-2005, generated by Flopy.
        53    -1E+30         0  
         1
         0
   0.000000E+00
         0
         0
INTERNAL               1 (207E15.6) -1 #hk layer 1                    
   2.102654E+01   1.155225E+01   7.290177E+00   9.043678E+00   2.174598E+01   2.029274E+01   5.343982E+01   3.959081E+01   8.153600E+01   5.936489E+01   3.300911E+01   1.695645E+01   1.381616E+01   5.796880E+00   5.338511E+00   1.933463E+01   1.639659E+01   2.618841E+01   3.922250E+01   2.760857E+01   1.932882E+01   1.643977E+01   4.228242E+01   1.279099E+02   1.361090E+02   7.965979E+01   2.987377E+01   3.545213E+01   3.694566E+01   1.722520E+01   1.658495E+01   5.987637E+00   1.078968E+01   2.383887E+01   1.978733E+01   2.684718E+01   1.984266E+01   6.935590E+00   1.154172E+01   1.236310E+01   1.133254E+01   1.341357E+01   1.290557E+01   2.445679E+01   6.866943E+01   5.362384E+01   1.120802E+01   6.395839E+01   2.888762E+01   1.653372E+01   4.550345E+01   2.736304E+01   1.427578E+01   1.216613E+01   1.199530E+01   1.404171E+01   3.839677E+01   9.460788E+00   2.948439E+01   4.099752E+01   2.493701E+01   3.095086E+01   2.312248E+01   1.761269E+01   2.035476E+01   1.098714E+01   8.772424E+00   3.636539E+01   3.739371E+01   3.149135E+01   1.490538E+01   1.387143E+01   5.911282E+00   4.102473E+00   3.024050E+00   1.281474E+01   1.994016E+01   3.213113E+01   3.231237E+01   5.376406E+01   7.428445E+01   1.081972E+02   3.914539E+01   1.045417E+01   2.247749E+01   9.842110E+01   5.755629E+01   4.040840E+01   3.676903E+01   1.969433E+01   1.969433E+01   1.824603E+01   2.424156E+01   2.424156E+01   1.151440E+01   1.679206E+01   1.679206E+01   3.211947E+01   3.211947E+01   3.211947E+01   2.552162E+01   2.552162E+01   2.552162E+01   3.836110E+01   3.836110E+01   3.836110E+01   3.836110E+01   3.836110E+01   4.903997E+01   4.903997E+01   4.903997E+01   4.903997E+01   4.903997E+01   1.365771E+01   1.365771E+01   1.365771E+01   1.365771E+01   1.365771E+01   1.365771E+01   1.365771E+01   1.500002E+01   1.500002E+01   1.500002E+01   1.500002E+01   1.500002E+01   1.500002E+01   1.500002E+01   1.500002E+01   1.500002E+01   1.500002E+01   3.118667E+01   3.118667E+01   3.118667E+01   3.118667E+01   3.118667E+01   3.118667E+01   3.118667E+01   3.118667E+01   3.118667E+01   2.238101E+01   2.238101E+01   2.238101E+01   2.238101E+01   2.238101E+01   2.238101E+01   2.238101E+01   1.534326E+01   1.534326E+01   1.534326E+01   1.534326E+01   1.534326E+01   2.449347E+01   2.449347E+01   2.449347E+01   2.449347E+01   1.406243E+01   1.406243E+01   1.406243E+01   9.630692E+00   9.630692E+00   1.720122E+01   1.720122E+01   7.267223E+00   7.267223E+00   6.688277E+00   1.990073E+01   2.039898E+01   2.039898E+01   1.252645E+01   1.331794E+01   6.332317E+01   1.428499E+02   6.740742E+01   1.251290E+01   3.423710E+01   1.074341E+02   4.735054E+01   4.196923E+01   2.216245E+01   3.190895E+01   1.062760E+02   4.176124E+01   7.319243E+01   2.340400E+01   2.057941E+01   2.652459E+01   5.437763E+01   4.449899E+01   5.544640E+01   6.198013E+01   3.629224E+01   4.300993E+01   5.502254E+01   5.161634E+01   2.986299E+01   2.119652E+01   2.393455E+01   1.619182E+01   2.460818E+01   5.261403E+01   5.913005E+01   7.256640E+01   3.621035E+01   5.844911E+01   2.311735E+01   8.821625E+00   8.152625E+00
   1.350448E+01   1.407533E+01   7.579138E+00   7.837719E+00   1.425796E+01   3.111066E+01   7.882592E+01   4.733968E+01   7.136377E+01   3.845844E+01   4.099073E+01   1.500437E+01   1.359194E+01   5.191258E+00   9.169785E+00   1.849351E+01   1.817001E+01   2.565158E+01   1.887883E+01   2.352624E+01   2.058848E+01   1.812741E+01   4.652040E+01   1.039804E+02   1.110143E+02   3.438974E+01   3.202488E+01   3.135855E+01   5.621297E+01   3.901820E+01   1.617559E+01   1.696450E+01   1.884494E+01   1.476741E+01   1.148475E+01   9.403070E+00   1.452402E+01   8.082157E+00   1.488748E+01   1.020346E+01   5.689612E+00   1.572945E+01   2.385465E+01   1.772463E+01   4.969852E+01   3.048982E+01   3.295065E+01   8.162166E+01   5.408058E+01   5.541651E+01   5.814797E+01   3.818607E+01   1.555406E+01   7.452063E+00   3.797757E+00   2.415961E+01   4.513587E+01   3.669205E+01   5.885629E+01   5.785981E+01   4.631289E+01   2.538873E+01   1.947203E+01   2.176458E+01   1.990368E+01   1.524070E+01   2.401804E+01   4.318400E+01   5.001157E+01   3.682794E+01   2.898539E+01   1.735550E+01   6.338077E+00   7.619437E+00   3.085586E+00   9.017900E+00   1.117123E+01   4.135989E+01   6.024754E+01   3.870840E+01   7.994320E+01   1.589975E+02   7.115659E+01   2.044623E+01   2.167294E+01   1.199561E+02   6.409465E+01   2.342030E+01   3.289752E+01   1.496627E+01   1.496627E+01   1.477205E+01   1.212039E+01   1.212039E+01   1.105134E+01   1.953711E+01   1.953711E+01   3.796774E+01   3.796774E+01   3.796774E+01   3.244110E+01   3.244110E+01   3.244110E+01   2.028132E+01   2.028132E+01   2.028132E+01   2.028132E+01   2.028132E+01   2.026376E+01   2.026376E+01   2.026376E+01   2.026376E+01   2.026376E+01   1.412143E+01   1.412143E+01   1.412143E+01   1.412143E+01   1.412143E+01   1.412143E+01   1.412143E+01   2.425862E+01   2.425862E+01   2.425862E+01   2.425862E+01   2.425862E+01   2.425862E+01   2.425862E+01   2.425862E+01   2.425862E+01   2.425862E+01   2.019494E+01   2.019494E+01   2.019494E+01   2.019494E+01   2.019494E+01   2.019494E+01   2.019494E+01   2.019494E+01   2.019494E+01   2.534662E+01   2.534662E+01   2.534662E+01   2.534662E+01   2.534662E+01   2.534662E+01   2.534662E+01   4.141711E+01   4.141711E+01   4.141711E+01   4.141711E+01   4.141711E+01   2.164954E+01   2.164954E+01   2.164954E+01   2.164954E+01   1.396665E+01   1.396665E+01   1.396665E+01   8.384657E+00   8.384657E+00   4.671980E+01   4.671980E+01   2.020795E+01   2.020795E+01   2.430858E+01   8.656561E+01   3.291460E+01   3.291460E+01   1.740874E+01   3.392670E+01   1.573622E+02   7.059746E+01   5.061284E+01   2.263553E+01   7.779846E+01   5.584652E+01   7.319212E+01   3.766428E+01   4.136582E+01   5.769065E+01   3.558951E+01   8.278043E+01   6.775097E+01   4.628862E+01   2.513574E+01   4.103416E+01   4.260420E+01   4.060366E+01   2.933563E+01   6.380037E+01   2.912237E+01   3.488319E+01   1.007443E+02   8.394367E+01   4.587924E+01   2.784297E+01   2.734179E+01   9.756576E+00   1.796675E+01   3.142666E+01   5.351635E+01   9.240791E+01   5.513937E+01   2.901932E+01   3.186238E+01   2.464080E+01   4.650304E+00
   9.703489E+00   1.244561E+01   1.395797E+01   6.097651E+00   1.937424E+01   5.091470E+01   7.086712E+01   3.451160E+01   4.008393E+01   4.168981E+01   4.484002E+01   2.213245E+01   1.905925E+01   5.329861E+00   1.481201E+01   1.631202E+01   1.083079E+01   1.485767E+01   1.097428E+01   1.433408E+01   1.982602E+01   1.832308E+01   4.395282E+01   5.137830E+01   7.374086E+01   5.442006E+01   4.503963E+01   6.100263E+01   3.892246E+01   2.237090E+01   2.905181E+01   3.764404E+01   3.985526E+01   2.146950E+01   8.053737E+00   2.015199E+01   6.562416E+00   1.078372E+01   5.259683E+00   3.683069E+00   7.435038E+00   1.113243E+01   4.298927E+01   2.485322E+01   8.719318E+01   3.804255E+01   1.935908E+01   2.961123E+01   6.607079E+01   5.101257E+01   7.473127E+01   4.674729E+01   2.066052E+01   5.348920E+00   2.020050E+00   1.929827E+01   3.274346E+01   2.462495E+01   5.492603E+01   7.617326E+01   5.733699E+01   2.354483E+01   1.605591E+01   6.819545E+00   1.451345E+01   2.350048E+01   1.726976E+01   3.169835E+01   1.191901E+02   3.337945E+01   5.727398E+01   2.348144E+01   7.905587E+00   3.524110E+00   1.800250E+00   6.762313E+00   1.848763E+01   6.615241E+01   3.879926E+01   5.277348E+01   1.245909E+02   1.441342E+02   4.829960E+01   2.207790E+01   2.115541E+01   7.929100E+01   1.213468E+02   4.598386E+01   2.749000E+01   1.347528E+01   1.347528E+01   5.855341E+00   8.058644E+00   8.058644E+00   1.861470E+01   2.169965E+01   2.169965E+01   3.259796E+01   3.259796E+01   3.259796E+01   2.290699E+01   2.290699E+01   2.290699E+01   1.599174E+01   1.599174E+01   1.599174E+01   1.599174E+01   1.599174E+01   6.197271E+00   6.197271E+00   6.197271E+00   6.197271E+00   6.197271E+00   8.072768E+00   8.072768E+00   8.072768E+00   8.072768E+00   8.072768E+00   8.072768E+00   8.072768E+00   1.265661E+01   1.265661E+01   1.265661E+01   1.265661E+01   1.265661E+01   1.265661E+01   1.265661E+01   1.265661E+01   1.265661E+01   1.265661E+01   5.873106E+00   5.873106E+00   5.873106E+00   5.873106E+00   5.873106E+00   5.873106E+00   5.873106E+00   5.873106E+00   5.873106E+00   2.590146E+01   2.590146E+01   2.590146E+01   2.590146E+01   2.590146E+01   2.590146E+01   2.590146E+01   4.276515E+01   4.276515E+01   4.276515E+01   4.276515E+01   4.276515E+01   3.918831E+01   3.918831E+01   3.918831E+01   3.918831E+01   1.771682E+01   1.771682E+01   1.771682E+01   5.287773E+00   5.287773E+00   4.320066E+01   4.320066E+01   3.324953E+01   3.324953E+01   7.961870E+01   5.909616E+01   2.212561E+01   2.212561E+01   1.877956E+01   4.483945E+01   1.160965E+02   8.607067E+01   4.745779E+01   1.365664E+01   3.964511E+01   4.731264E+01   6.895451E+01   6.311615E+01   1.974589E+01   3.330014E+01   3.516378E+01   5.248685E+01   8.481650E+01   4.790290E+01   1.774702E+01   9.501236E+01   2.980303E+01   3.739096E+01   3.363755E+01   7.525628E+01   3.834225E+01   4.315536E+01   1.370816E+02   1.035615E+02   4.086864E+01   2.025652E+01   2.487811E+01   1.316416E+01   1.244956E+01   2.947720E+01   1.514873E+02   1.464096E+02   5.284402E+01   2.014459E+01   2.886812E+01   1.539521E+01   4.063491E+00
   1.136171E+01   1.338158E+01   8.670969E+00   6.349105E+00   1.185772E+01   5.305986E+01   6.896295E+01   7.702176E+01   5.605457E+01   4.590097E+01   5.339169E+01   6.111589E+01   3.528356E+01   1.156110E+01   2.080477E+01   2.157756E+01   5.463799E+00   1.955073E+01   1.334540E+01   1.864670E+01   2.818087E+01   2.465257E+01   3.193287E+01   5.742856E+01   5.910331E+01   4.332489E+01   5.150571E+01   3.608679E+01   2.747688E+01   4.379480E+01   6.454984E+01   3.276479E+01   3.620566E+01   1.677084E+01   1.136486E+01   9.911467E+00   7.783424E+00   1.350824E+01   4.694630E+00   3.924155E+00   9.571092E+00   1.594255E+01   2.646305E+01   2.094037E+01   3.933649E+01   3.219824E+01   1.821345E+01   1.154228E+01   4.519226E+01   7.693290E+01   7.538184E+01   8.860289E+01   1.885171E+01   1.182592E+01   3.024791E+00   6.882565E+00   1.080443E+01   3.216848E+01   2.397873E+01   4.478955E+01   5.694271E+01   1.751362E+01   1.252616E+01   3.071991E+00   2.675037E+01   2.832600E+01   3.307624E+01   2.829957E+01   7.013480E+01   5.720701E+01   2.044478E+01   6.589851E+00   8.181862E+00   5.825662E+00   1.537590E+00   2.537172E+00   2.832853E+01   6.028154E+01   3.261831E+01   3.966039E+01   6.075561E+01   8.493651E+01   4.494532E+01   4.787475E+01   2.047356E+01   6.138602E+01   3.986369E+01   2.274571E+01   1.290109E+01   6.317841E+00   6.317841E+00   1.125612E+01   2.016544E+01   2.016544E+01   4.512958E+01   1.787102E+01   1.787102E+01   4.024962E+01   4.024962E+01   4.024962E+01   2.299567E+01   2.299567E+01   2.299567E+01   2.003035E+01   2.003035E+01   2.003035E+01   2.003035E+01   2.003035E+01   9.529246E+00   9.529246E+00   9.529246E+00   9.529246E+00   9.529246E+00   1.299891E+01   1.299891E+01   1.299891E+01   1.299891E+01   1.299891E+01   1.299891E+01   1.299891E+01   2.933933E+01   2.933933E+01   2.933933E+01   2.933933E+01   2.933933E+01   2.933933E+01   2.933933E+01   2.933933E+01   2.933933E+01   2.933933E+01   2.105306E+01   2.105306E+01   2.105306E+01   2.105306E+01   2.105306E+01   2.105306E+01   2.105306E+01   2.105306E+01   2.105306E+01   2.227080E+01   2.227080E+01   2.227080E+01   2.227080E+01   2.227080E+01   2.227080E+01   2.227080E+01   3.420498E+01   3.420498E+01   3.420498E+01   3.420498E+01   3.420498E+01   2.703688E+01   2.703688E+01   2.703688E+01   2.703688E+01   7.661726E+00   7.661726E+00   7.661726E+00   2.263118E+01   2.263118E+01   4.833655E+01   4.833655E+01   6.430162E+01   6.430162E+01   9.960771E+01   8.307999E+01   8.381756E+01   8.381756E+01   2.763339E+01   6.979794E+01   1.542257E+02   1.526666E+02   7.447162E+01   3.414481E+01   2.024630E+01   3.415355E+01   8.068214E+01   5.121372E+01   1.892943E+01   2.044593E+01   3.866582E+01   2.785839E+01   6.961551E+01   5.422684E+01   5.589068E+01   8.425597E+01   4.180066E+01   2.420883E+01   6.115428E+01   5.066451E+01   6.183784E+01   1.077085E+02   3.188066E+02   6.121195E+01   7.995031E+01   2.716617E+01   3.107520E+01   9.884273E+00   1.942284E+01   3.968844E+01   7.104195E+01   6.488128E+01   8.742529E+01   1.667769E+01   1.926229E+01   2.819619E+01   9.437335E+00
   1.161829E+01   1.059872E+01   7.025273E+00   1.059256E+01   1.216599E+01   3.174752E+01   5.060203E+01   8.306763E+01   1.005123E+02   4.944117E+01   1.097455E+02   4.710178E+01   4.748826E+01   1.101492E+01   2.261853E+01   1.472402E+01   7.202546E+00   1.788676E+01   2.856730E+01   2.993620E+01   1.875892E+01   3.440042E+01   1.943766E+01   9.055828E+01   1.409127E+02   3.584038E+01   7.273021E+01   9.550766E+00   3.122767E+01   3.098641E+01   8.206716E+01   3.789163E+01   4.214250E+01   1.230359E+01   1.678546E+01   1.082201E+01   6.932879E+00   9.535626E+00   5.792169E+00   7.959568E+00   1.417108E+01   1.208710E+01   2.943263E+01   3.442309E+01   5.482480E+01   3.766054E+01   2.822372E+01   1.264993E+01   2.841047E+01   4.274167E+01   3.935614E+01   5.966665E+01   1.165118E+01   1.408038E+01   3.048021E+00   8.637332E+00   1.578240E+01   2.117870E+01   1.484703E+01   5.368265E+01   3.334007E+01   2.185438E+01   1.137057E+01   1.569205E+01   2.797555E+01   1.065335E+02   4.669682E+01   7.139699E+01   5.445072E+01   1.945747E+01   8.461889E+00   5.303228E+00   1.237603E+01   1.578683E+01   4.082233E+00   1.565690E+01   2.960210E+01   5.184512E+01   2.725320E+01   3.862945E+01   3.396103E+01   4.123336E+01   4.672525E+01   7.705807E+01   3.058759E+01   6.344915E+01   1.005206E+02   2.520373E+01   1.481751E+01   1.219244E+01   1.219244E+01   6.460819E+00   3.099988E+01   3.099988E+01   2.281290E+01   1.160695E+01   1.160695E+01   2.458970E+01   2.458970E+01   2.458970E+01   1.712492E+01   1.712492E+01   1.712492E+01   1.046103E+01   1.046103E+01   1.046103E+01   1.046103E+01   1.046103E+01   2.877881E+01   2.877881E+01   2.877881E+01   2.877881E+01   2.877881E+01   3.538972E+01   3.538972E+01   3.538972E+01   3.538972E+01   3.538972E+01   3.538972E+01   3.538972E+01   2.148894E+01   2.148894E+01   2.148894E+01   2.148894E+01   2.148894E+01   2.148894E+01   2.148894E+01   2.148894E+01   2.148894E+01   2.148894E+01   7.626657E+01   7.626657E+01   7.626657E+01   7.626657E+01   7.626657E+01   7.626657E+01   7.626657E+01   7.626657E+01   7.626657E+01   4.732482E+01   4.732482E+01   4.732482E+01   4.732482E+01   4.732482E+01   4.732482E+01   4.732482E+01   3.203415E+01   3.203415E+01   3.203415E+01   3.203415E+01   3.203415E+01   1.965736E+01   1.965736E+01   1.965736E+01   1.965736E+01   9.640551E+00   9.640551E+00   9.640551E+00   1.646071E+01   1.646071E+01   4.417489E+01   4.417489E+01   6.024965E+01   6.024965E+01   6.377397E+01   1.078687E+02   7.454675E+01   7.454675E+01   5.926577E+01   1.063318E+02   1.831852E+02   1.470759E+02   1.050796E+02   2.950402E+01   1.667195E+01   2.607441E+01   4.717883E+01   6.017448E+01   2.780819E+01   5.044105E+01   1.015336E+02   2.807912E+01   6.506342E+01   4.601984E+01   5.357239E+01   4.980135E+01   1.672668E+01   3.260119E+01   4.143353E+01   1.302380E+02   7.894791E+01   1.688258E+02   3.902573E+02   1.339062E+02   9.400295E+01   5.286421E+01   2.956057E+01   9.325939E+00   1.961789E+01   5.069347E+01   4.562090E+01   4.476780E+01   7.016340E+01   2.672934E+01   2.910550E+01   1.777068E+01   2.621118E+01
   8.065217E+00   6.665771E+00   9.522550E+00   1.023537E+01   1.693384E+01   2.007124E+01   6.830766E+01   1.590723E+02   7.787233E+01   6.431906E+01   7.097868E+01   9.451065E+01   4.944458E+01   1.170062E+01   1.543737E+01   1.152518E+01   1.105400E+01   1.216397E+01   3.337444E+01   1.766424E+01   6.185239E+01   4.710912E+01   9.703997E+01   6.446794E+01   7.636778E+01   4.440077E+01   8.953568E+01   1.244422E+01   1.248404E+01   2.412357E+01   4.929978E+01   3.357940E+01   5.813311E+01   5.388560E+01   2.546462E+01   2.830042E+01   1.466880E+01   1.602684E+01   1.767266E+01   6.720592E+00   8.924839E+00   1.707910E+01   2.689444E+01   1.420516E+01   3.931986E+01   6.592663E+01   2.479137E+01   1.304735E+01   9.648373E+00   2.005882E+01   4.636690E+01   7.156445E+01   3.700200E+01   1.483243E+01   5.678069E+00   7.084881E+00   1.002930E+01   1.096191E+01   1.625200E+01   2.079577E+01   1.837100E+01   1.209320E+01   8.970253E+00   1.715803E+01   1.362174E+01   9.033339E+01   5.304607E+01   8.214395E+01   6.719104E+01   2.512475E+01   2.613312E+01   7.936818E+00   1.071474E+01   1.168528E+01   9.090525E+00   3.594138E+01   1.850327E+01   2.579366E+01   1.740862E+01   5.593587E+01   3.399162E+01   2.112537E+01   2.533429E+01   6.724529E+01   2.030490E+01   5.496804E+01   1.473353E+02   4.093870E+01   2.445691E+01   1.700023E+01   1.700023E+01   1.646665E+01   3.276792E+01   3.276792E+01   1.346542E+01   8.949270E+00   8.949270E+00   1.434502E+01   1.434502E+01   1.434502E+01   1.184810E+01   1.184810E+01   1.184810E+01   1.606661E+01   1.606661E+01   1.606661E+01   1.606661E+01   1.606661E+01   5.571930E+01   5.571930E+01   5.571930E+01   5.571930E+01   5.571930E+01   4.445181E+01   4.445181E+01   4.445181E+01   4.445181E+01   4.445181E+01   4.445181E+01   4.445181E+01   2.778009E+01   2.778009E+01   2.778009E+01   2.778009E+01   2.778009E+01   2.778009E+01   2.778009E+01   2.778009E+01   2.778009E+01   2.778009E+01   8.603882E+01   8.603882E+01   8.603882E+01   8.603882E+01   8.603882E+01   8.603882E+01   8.603882E+01   8.603882E+01   8.603882E+01   4.991515E+01   4.991515E+01   4.991515E+01   4.991515E+01   4.991515E+01   4.991515E+01   4.991515E+01   5.089128E+01   5.089128E+01   5.089128E+01   5.089128E+01   5.089128E+01   1.928562E+01   1.928562E+01   1.928562E+01   1.928562E+01   8.297044E+00   8.297044E+00   8.297044E+00   1.742550E+01   1.742550E+01   4.252773E+01   4.252773E+01   9.329096E+01   9.329096E+01   4.776959E+01   9.041329E+01   1.256373E+02   1.256373E+02   1.806025E+02   1.329438E+02   2.337365E+02   3.871253E+01   5.721424E+01   2.086967E+01   1.172087E+01   1.364394E+01   2.043746E+01   4.563993E+01   1.744313E+01   4.304479E+01   1.657383E+02   7.422237E+01   5.289646E+01   7.380962E+01   4.640306E+01   4.783662E+01   3.258667E+01   4.485389E+01   3.712542E+01   1.599361E+02   8.194337E+01   9.421326E+01   1.473033E+02   8.796288E+01   9.095966E+01   4.678666E+01   3.916932E+01   6.210628E+00   1.260152E+01   4.313534E+01   5.377042E+01   7.292723E+01   1.077451E+02   2.445430E+01   1.831381E+01   1.418124E+01   1.630909E+01
   7.833612E+00   1.602334E+01   1.244051E+01   5.297132E+00   6.459752E+00   1.754528E+01   5.074440E+01   9.674809E+01   1.070905E+02   1.112202E+02   7.383204E+01   1.245889E+02   6.397858E+01   1.069503E+01   1.381931E+01   1.269290E+01   8.646626E+00   3.249582E+01   4.025079E+01   3.459385E+01   6.334215E+01   6.956281E+01   6.646500E+01   3.090938E+01   1.997891E+01   6.102354E+01   1.001277E+02   5.473269E+01   2.305416E+01   3.015554E+01   1.562496E+01   5.885998E+01   1.493118E+02   6.085339E+01   2.360254E+01   2.347450E+01   1.890756E+01   1.345545E+01   1.223774E+01   6.848386E+00   5.664306E+00   1.007941E+01   1.328238E+01   1.774341E+01   1.250056E+01   4.701588E+01   3.344006E+01   1.399385E+01   1.064950E+01   1.483880E+01   2.520135E+01   2.741549E+01   4.347160E+01   1.740666E+01   1.056421E+01   9.820897E+00   5.907911E+00   6.404558E+00   1.149296E+01   1.231084E+01   1.918827E+01   2.648043E+01   7.873438E+00   1.708777E+01   8.854217E+00   3.086193E+01   4.777773E+01   1.009103E+02   3.882901E+01   1.650235E+01   1.900558E+01   1.066050E+01   1.542299E+01   2.123282E+01   1.262754E+01   6.653320E+01   2.019501E+01   1.862321E+01   1.768949E+01   3.250443E+01   2.067869E+01   8.452960E+00   1.799024E+01   1.846199E+01   4.269769E+01   1.038065E+02   8.839724E+01   4.073679E+01   2.457076E+01   2.422243E+01   2.422243E+01   2.250125E+01   1.085465E+01   1.085465E+01   1.837917E+01   1.604286E+01   1.604286E+01   2.172540E+01   2.172540E+01   2.172540E+01   1.572226E+01   1.572226E+01   1.572226E+01   1.803462E+01   1.803462E+01   1.803462E+01   1.803462E+01   1.803462E+01   5.872701E+01   5.872701E+01   5.872701E+01   5.872701E+01   5.872701E+01   9.944341E+01   9.944341E+01   9.944341E+01   9.944341E+01   9.944341E+01   9.944341E+01   9.944341E+01   6.195971E+01   6.195971E+01   6.195971E+01   6.195971E+01   6.195971E+01   6.195971E+01   6.195971E+01   6.195971E+01   6.195971E+01   6.195971E+01   1.580581E+02   1.580581E+02   1.580581E+02   1.580581E+02   1.580581E+02   1.580581E+02   1.580581E+02   1.580581E+02   1.580581E+02   4.821416E+01   4.821416E+01   4.821416E+01   4.821416E+01   4.821416E+01   4.821416E+01   4.821416E+01   4.114957E+01   4.114957E+01   4.114957E+01   4.114957E+01   4.114957E+01   3.293402E+01   3.293402E+01   3.293402E+01   3.293402E+01   1.078865E+01   1.078865E+01   1.078865E+01   2.806012E+01   2.806012E+01   1.309908E+01   1.309908E+01   2.638025E+01   2.638025E+01   3.371393E+01   7.618134E+01   2.796575E+02   2.796575E+02   2.894999E+02   1.538278E+02   1.423731E+02   2.890552E+01   4.235839E+01   3.628055E+01   1.587650E+01   1.543242E+01   1.589055E+01   3.310726E+01   1.377986E+01   2.472345E+01   9.320736E+01   1.396171E+02   5.473629E+01   1.026215E+02   6.768881E+01   3.962210E+01   3.848478E+01   5.625423E+01   2.852979E+01   9.282500E+01   8.522633E+01   9.454705E+01   5.500671E+01   3.968156E+01   2.001470E+02   4.049944E+01   3.205489E+01   9.623357E+00   1.636716E+01   2.813985E+01   7.437140E+01   3.474283E+01   6.979465E+01   4.798751E+01   1.689897E+01   8.692966E+00   1.605243E+01
   1.052504E+01   9.842956E+00   8.601497E+00   3.443834E+00   3.848797E+00   1.336320E+01   2.925682E+01   4.404030E+01   8.488486E+01   1.168794E+02   9.408956E+01   6.840527E+01   4.296922E+01   1.341378E+01   1.350297E+01   1.567891E+01   8.486655E+00   2.019980E+01   4.517142E+01   2.648142E+01   3.463186E+01   8.221317E+01   4.583426E+01   2.240438E+01   2.551219E+01   4.665698E+01   1.391050E+02   1.002688E+02   4.105894E+01   2.863478E+01   1.930727E+01   5.298363E+01   5.729169E+01   3.695805E+01   4.940202E+01   3.147553E+01   1.155002E+01   6.861098E+00   1.043634E+01   9.940276E+00   5.458307E+00   8.326320E+00   5.542570E+00   8.732643E+00   1.523318E+01   4.472357E+01   3.182198E+01   1.425130E+01   1.138722E+01   1.395435E+01   8.107188E+00   8.721442E+00   3.174893E+01   2.330206E+01   1.566442E+01   1.610153E+01   5.171629E+00   6.311407E+00   9.838717E+00   1.312012E+01   2.525273E+01   1.729872E+01   6.512775E+00   7.789015E+00   6.170914E+00   1.848343E+01   3.227544E+01   5.611954E+01   4.067094E+01   2.023672E+01   1.127629E+01   1.322492E+01   2.823594E+01   1.466022E+01   1.198433E+01   7.499989E+01   4.218270E+01   3.979518E+01   1.920989E+01   3.385786E+01   2.349242E+01   1.684451E+01   1.026745E+01   1.566359E+01   2.198309E+01   1.379453E+02   1.656642E+02   6.723941E+01   4.227669E+01   3.924695E+01   3.924695E+01   1.043034E+01   9.380164E+00   9.380164E+00   2.595620E+01   2.399721E+01   2.399721E+01   1.597072E+01   1.597072E+01   1.597072E+01   1.515284E+01   1.515284E+01   1.515284E+01   2.948310E+01   2.948310E+01   2.948310E+01   2.948310E+01   2.948310E+01   2.646025E+01   2.646025E+01   2.646025E+01   2.646025E+01   2.646025E+01   1.165859E+02   1.165859E+02   1.165859E+02   1.165859E+02   1.165859E+02   1.165859E+02   1.165859E+02   7.253812E+01   7.253812E+01   7.253812E+01   7.253812E+01   7.253812E+01   7.253812E+01   7.253812E+01   7.253812E+01   7.253812E+01   7.253812E+01   1.444467E+02   1.444467E+02   1.444467E+02   1.444467E+02   1.444467E+02   1.444467E+02   1.444467E+02   1.444467E+02   1.444467E+02   8.239199E+01   8.239199E+01   8.239199E+01   8.239199E+01   8.239199E+01   8.239199E+01   8.239199E+01   2.705887E+01   2.705887E+01   2.705887E+01   2.705887E+01   2.705887E+01   2.063222E+01   2.063222E+01   2.063222E+01   2.063222E+01   1.174938E+01   1.174938E+01   1.174938E+01   4.647775E+01   4.647775E+01   8.837913E+00   8.837913E+00   9.648728E+00   9.648728E+00   3.152776E+01   5.046323E+01   4.111950E+02   4.111950E+02   3.663271E+02   3.129628E+02   1.755803E+02   4.520875E+01   3.658297E+01   5.605984E+01   2.380948E+01   2.319646E+01   1.673454E+01   1.988586E+01   1.691934E+01   5.473115E+01   7.911865E+01   7.185714E+01   7.575018E+01   2.306385E+02   8.457674E+01   6.538714E+01   5.857857E+01   3.312793E+01   3.289297E+01   2.947576E+01   3.147658E+01   6.820142E+01   3.341882E+01   5.538814E+01   8.165151E+01   2.270414E+01   1.158610E+01   1.033415E+01   1.320646E+01   3.180792E+01   8.745596E+01   6.480569E+01   8.380664E+01   3.932647E+01   1.215182E+01   9.726020E+00   2.209643E+01
   6.455987E+00   7.210099E+00   1.118813E+01   1.023704E+01   1.966710E+00   8.128543E+00   1.115965E+01   2.040044E+01   5.388175E+01   6.320328E+01   6.867522E+01   6.583823E+01   6.561256E+01   1.313561E+01   6.908799E+00   1.097622E+01   9.044701E+00   1.425567E+01   4.931115E+01   7.457416E+01   1.828132E+01   5.606374E+01   2.566946E+01   2.907235E+01   6.501173E+01   1.171513E+02   1.215025E+02   1.223543E+02   4.307401E+01   5.871652E+01   1.504280E+01   5.971067E+01   6.415588E+01   3.151479E+01   5.954477E+01   4.676795E+01   1.411403E+01   9.232291E+00   7.980229E+00   5.083979E+00   5.914706E+00   6.091285E+00   1.353034E+01   1.035731E+01   2.361729E+01   1.433969E+01   2.546256E+01   2.057036E+01   5.815430E+00   7.516273E+00   6.553934E+00   2.231304E+01   1.961258E+01   1.600110E+01   2.459469E+01   1.349089E+01   9.246379E+00   1.551771E+01   1.320597E+01   9.208171E+00   2.234298E+01   1.556377E+01   1.066491E+01   6.075163E+00   7.324094E+00   1.126801E+01   2.387978E+01   4.466584E+01   1.734223E+01   2.198302E+01   1.633413E+01   1.849717E+01   3.740937E+01   2.454622E+01   1.732686E+01   5.407457E+01   6.570106E+01   5.512939E+01   4.666045E+01   2.595282E+01   2.128769E+01   8.466935E+00   9.806734E+00   1.427994E+01   2.711696E+01   7.684005E+01   1.073456E+02   5.377526E+01   3.194332E+01   2.178990E+01   2.178990E+01   1.033452E+01   8.139540E+00   8.139540E+00   2.180158E+01   9.897845E+00   9.897845E+00   8.199313E+00   8.199313E+00   8.199313E+00   1.072574E+01   1.072574E+01   1.072574E+01   1.202625E+01   1.202625E+01   1.202625E+01   1.202625E+01   1.202625E+01   4.961140E+01   4.961140E+01   4.961140E+01   4.961140E+01   4.961140E+01   4.374911E+01   4.374911E+01   4.374911E+01   4.374911E+01   4.374911E+01   4.374911E+01   4.374911E+01   6.204300E+01   6.204300E+01   6.204300E+01   6.204300E+01   6.204300E+01   6.204300E+01   6.204300E+01   6.204300E+01   6.204300E+01   6.204300E+01   1.151961E+02   1.151961E+02   1.151961E+02   1.151961E+02   1.151961E+02   1.151961E+02   1.151961E+02   1.151961E+02   1.151961E+02   4.965319E+01   4.965319E+01   4.965319E+01   4.965319E+01   4.965319E+01   4.965319E+01   4.965319E+01   1.578037E+01   1.578037E+01   1.578037E+01   1.578037E+01   1.578037E+01   1.833063E+01   1.833063E+01   1.833063E+01   1.833063E+01   1.702537E+01   1.702537E+01   1.702537E+01   5.555455E+01   5.555455E+01   1.470154E+01   1.470154E+01   1.548758E+01   1.548758E+01   6.503615E+01   9.065449E+01   3.032577E+02   3.032577E+02   1.363817E+02   5.411536E+02   1.104107E+02   4.078073E+01   4.987942E+01   1.031666E+02   2.694800E+01   2.012154E+01   7.752620E+00   1.348627E+01   1.828266E+01   5.669858E+01   2.740215E+01   9.593459E+01   1.259829E+02   2.481453E+02   1.931457E+02   8.987236E+01   5.770816E+01   9.480168E+01   4.085981E+01   3.051827E+01   3.230781E+01   4.937062E+01   4.630047E+01   1.151216E+02   3.234490E+01   2.097428E+01   1.741618E+01   2.172643E+01   1.374687E+01   7.562536E+01   9.369496E+01   1.289509E+02   8.065847E+01   5.079002E+01   2.196372E+01   7.393353E+00   1.461106E+01