# LPF package for  MODFLOW-2005, generated by Flopy.
        53    -1E+30         0  
         1
         0
   0.000000E+00
         0
         0
INTERNAL               1 (207E15.6) -1 #hk layer 1                    
   2.289701E+01   4.698532E+01   5.186561E+01   3.390431E+01   3.634610E+01   1.978626E+01   3.193874E+01   1.002785E+01   7.198838E+00   1.556242E+01   3.358231E+01   3.450690E+01   1.850750E+01   1.115324E+01   2.008122E+01   2.598321E+01   2.064515E+01   5.171411E+01   2.256138E+01   1.341861E+01   1.227758E+01   1.179415E+01   1.512134E+01   6.291860E+00   1.525649E+01   3.160658E+01   3.298150E+01   9.415592E+01   1.034099E+02   3.337175E+01   3.373929E+01   2.564815E+01   6.884708E+01   2.446600E+01   3.304148E+01   3.404155E+01   6.813432E+01   2.160536E+01   5.972416E+01   3.263227E+01   2.100868E+01   1.240902E+01   8.028234E+00   1.136436E+01   1.184579E+01   3.404190E+01   3.696770E+01   4.921975E+01   1.281658E+02   3.481298E+01   1.136832E+01   2.927992E+01   9.729507E+00   9.637540E+00   3.848537E+01   4.297385E+01   2.033757E+01   2.013858E+01   7.714231E+01   8.963784E+01   1.397732E+02   1.140903E+02   9.582567E+01   1.171864E+02   1.912867E+01   1.738317E+01   1.481969E+02   1.827237E+02   5.842105E+01   2.166321E+01   5.516080E+01   1.755086E+01   4.447374E+01   1.987043E+01   1.227127E+01   4.270257E+01   6.264523E+01   3.057927E+01   5.997099E+01   1.672187E+02   7.244991E+01   2.714156E+01   4.326180E+01   1.260364E+02   2.133842E+02   8.375113E+01   4.400806E+01   6.262603E+01   3.847952E+01   1.183490E+02   1.183490E+02   2.758332E+01   4.913661E+01   4.913661E+01   1.117888E+02   1.256230E+02   1.256230E+02   9.089419E+01   9.089419E+01   9.089419E+01   1.103705E+02   1.103705E+02   1.103705E+02   4.204325E+01   4.204325E+01   4.204325E+01   4.204325E+01   4.204325E+01   7.718809E+01   7.718809E+01   7.718809E+01   7.718809E+01   7.718809E+01   5.326085E+01   5.326085E+01   5.326085E+01   5.326085E+01   5.326085E+01   5.326085E+01   5.326085E+01   1.554901E+02   1.554901E+02   1.554901E+02   1.554901E+02   1.554901E+02   1.554901E+02   1.554901E+02   1.554901E+02   1.554901E+02   1.554901E+02   1.690039E+02   1.690039E+02   1.690039E+02   1.690039E+02   1.690039E+02   1.690039E+02   1.690039E+02   1.690039E+02   1.690039E+02   1.223223E+02   1.223223E+02   1.223223E+02   1.223223E+02   1.223223E+02   1.223223E+02   1.223223E+02   1.051173E+02   1.051173E+02   1.051173E+02   1.051173E+02   1.051173E+02   2.679182E+01   2.679182E+01   2.679182E+01   2.679182E+01   5.553747E+01   5.553747E+01   5.553747E+01   3.666230E+01   3.666230E+01   4.206108E+01   4.206108E+01   6.289602E+01   6.289602E+01   1.213064E+02   9.046495E+01   2.949953E+01   2.949953E+01   3.799350E+01   3.529879E+01   7.386775E+01   6.398037E+01   4.097786E+01   2.114881E+02   1.193700E+02   2.530570E+02   1.754453E+02   1.547649E+02   4.826487E+01   1.564426E+01   1.276348E+01   1.802059E+01   1.117982E+01   1.847348E+01   5.980138E+00   4.868221E+00   7.918696E+00   2.386652E+01   2.793456E+01   3.511932E+01   2.192902E+01   9.453233E+01   5.491959E+02   3.134980E+02   6.717470E+01   1.038205E+02   3.412103E+01   1.560160E+01   3.472281E+01   2.797980E+01   1.315454E+01   5.028150E+00   6.593327E+00   2.502429E+01   4.420716E+01   2.638620E+01   2.609644E+01
   4.861886E+01   3.049990E+01   7.769105E+01   3.972803E+01   2.931645E+01   4.823212E+01   1.907302E+01   1.108364E+01   4.102803E+00   1.841077E+01   4.913578E+01   3.349651E+01   1.625841E+01   1.284831E+01   1.883329E+01   1.919249E+01   1.627069E+01   4.681073E+01   4.164211E+01   4.173618E+01   5.009660E+01   3.394904E+01   1.876001E+01   1.239790E+01   1.750601E+01   6.522554E+01   2.804893E+01   1.486216E+02   1.231683E+02   7.242695E+01   6.802357E+01   2.867938E+01   3.046537E+01   1.897676E+01   2.897388E+01   3.562596E+01   9.447569E+01   4.379681E+01   3.602442E+01   3.667908E+01   2.182509E+01   1.167705E+01   8.442092E+00   5.728993E+00   1.022808E+01   1.222218E+01   3.353006E+01   2.010400E+01   1.397728E+02   2.775286E+01   1.278765E+01   3.731206E+01   2.275503E+01   1.097953E+01   4.585337E+01   6.653545E+01   2.227453E+01   2.749566E+01   6.194442E+01   8.633694E+01   1.391742E+02   8.412002E+01   9.284653E+01   1.644320E+02   6.737970E+01   3.991283E+01   1.836524E+02   1.822280E+02   6.787383E+01   6.226232E+01   3.026872E+01   1.698232E+01   3.532666E+01   1.429835E+01   1.373732E+01   7.549326E+01   4.839166E+01   6.284541E+01   4.297776E+01   1.189753E+02   2.377629E+02   4.664477E+01   2.986474E+01   7.507944E+01   2.174153E+02   1.015673E+02   1.069146E+02   1.204967E+02   6.830265E+01   9.885194E+01   9.885194E+01   8.135172E+01   5.581221E+01   5.581221E+01   1.197584E+02   1.302595E+02   1.302595E+02   7.841724E+01   7.841724E+01   7.841724E+01   1.651808E+02   1.651808E+02   1.651808E+02   5.388119E+01   5.388119E+01   5.388119E+01   5.388119E+01   5.388119E+01   7.371697E+01   7.371697E+01   7.371697E+01   7.371697E+01   7.371697E+01   1.296775E+02   1.296775E+02   1.296775E+02   1.296775E+02   1.296775E+02   1.296775E+02   1.296775E+02   1.184506E+02   1.184506E+02   1.184506E+02   1.184506E+02   1.184506E+02   1.184506E+02   1.184506E+02   1.184506E+02   1.184506E+02   1.184506E+02   1.124939E+02   1.124939E+02   1.124939E+02   1.124939E+02   1.124939E+02   1.124939E+02   1.124939E+02   1.124939E+02   1.124939E+02   1.108013E+02   1.108013E+02   1.108013E+02   1.108013E+02   1.108013E+02   1.108013E+02   1.108013E+02   5.752431E+01   5.752431E+01   5.752431E+01   5.752431E+01   5.752431E+01   3.086907E+01   3.086907E+01   3.086907E+01   3.086907E+01   3.566819E+01   3.566819E+01   3.566819E+01   4.978605E+01   4.978605E+01   6.675345E+01   6.675345E+01   3.811246E+01   3.811246E+01   1.034009E+02   6.052394E+01   6.415814E+01   6.415814E+01   6.098223E+01   3.551119E+01   5.629274E+01   6.217988E+01   7.824761E+01   8.575967E+01   1.252785E+02   4.188126E+02   4.024031E+02   1.568964E+02   3.213863E+01   1.507990E+01   1.197162E+01   9.989890E+00   1.621272E+01   1.840500E+01   1.177707E+01   7.744299E+00   1.095105E+01   5.780609E+01   3.095548E+01   1.724391E+01   1.871262E+01   6.858215E+01   2.638899E+02   2.556376E+02   9.801359E+01   6.765855E+01   2.513051E+01   3.275206E+01   2.511722E+01   3.121387E+01   1.097512E+01   1.109593E+01   9.064322E+00   1.452531E+01   2.307732E+01   2.069693E+01   5.488712E+01
   4.962779E+01   3.379036E+01   9.730955E+01   5.667765E+01   4.449510E+01   2.923202E+01   1.675467E+01   1.176747E+01   1.732588E+01   1.845279E+01   4.418505E+01   5.310424E+01   1.806201E+01   1.204329E+01   2.906463E+01   1.507718E+01   5.825866E+01   6.291839E+01   4.501478E+01   3.250644E+01   4.239388E+01   4.954151E+01   3.393745E+01   1.596206E+01   1.886812E+01   4.014572E+01   5.180508E+01   1.071381E+02   8.965046E+01   3.356513E+01   6.471378E+01   3.064087E+01   2.096754E+01   2.095212E+01   6.587292E+01   6.252448E+01   8.420631E+01   5.736856E+01   4.408746E+01   3.003198E+01   2.022976E+01   2.286233E+01   7.562334E+00   2.925441E+00   1.371422E+01   1.722190E+01   3.621092E+01   3.662005E+01   1.133486E+02   3.736957E+01   2.812584E+01   2.525694E+01   3.951789E+01   2.229029E+01   2.319242E+01   4.342482E+01   3.718106E+01   3.862448E+01   6.606921E+01   5.276458E+01   1.930401E+02   9.908758E+01   4.898569E+01   8.287669E+01   9.639594E+01   7.989900E+01   2.463136E+02   8.038185E+01   4.632917E+01   7.882232E+01   3.363154E+01   1.864215E+01   4.774660E+01   2.302884E+01   4.259124E+01   6.392783E+01   3.774173E+01   7.441473E+01   5.496052E+01   7.810652E+01   1.881069E+02   2.954144E+01   4.041042E+01   6.075255E+01   7.217233E+01   1.151101E+02   9.040192E+01   2.562051E+02   2.316152E+02   8.919318E+01   8.919318E+01   9.405461E+01   6.559737E+01   6.559737E+01   1.006361E+02   9.968099E+01   9.968099E+01   1.249201E+02   1.249201E+02   1.249201E+02   9.029983E+01   9.029983E+01   9.029983E+01   6.974697E+01   6.974697E+01   6.974697E+01   6.974697E+01   6.974697E+01   5.988844E+01   5.988844E+01   5.988844E+01   5.988844E+01   5.988844E+01   1.109929E+02   1.109929E+02   1.109929E+02   1.109929E+02   1.109929E+02   1.109929E+02   1.109929E+02   8.449596E+01   8.449596E+01   8.449596E+01   8.449596E+01   8.449596E+01   8.449596E+01   8.449596E+01   8.449596E+01   8.449596E+01   8.449596E+01   1.318659E+02   1.318659E+02   1.318659E+02   1.318659E+02   1.318659E+02   1.318659E+02   1.318659E+02   1.318659E+02   1.318659E+02   5.887039E+01   5.887039E+01   5.887039E+01   5.887039E+01   5.887039E+01   5.887039E+01   5.887039E+01   9.014996E+01   9.014996E+01   9.014996E+01   9.014996E+01   9.014996E+01   3.168338E+01   3.168338E+01   3.168338E+01   3.168338E+01   4.544163E+01   4.544163E+01   4.544163E+01   4.662332E+01   4.662332E+01   4.381680E+01   4.381680E+01   2.104324E+01   2.104324E+01   1.051135E+02   8.533588E+01   1.164812E+02   1.164812E+02   7.097666E+01   5.371940E+01   9.783968E+01   4.537410E+01   3.350877E+01   6.226182E+01   4.055876E+01   3.095464E+02   3.337474E+02   1.840771E+02   4.626613E+01   2.320604E+01   2.207319E+01   2.986212E+01   3.255854E+01   3.988689E+01   4.054680E+01   4.213811E+01   1.610969E+01   4.739660E+01   2.495536E+01   1.007032E+01   1.232784E+01   3.745285E+01   6.520007E+01   1.263239E+02   7.787521E+01   5.319458E+01   2.900746E+01   1.128079E+01   2.246640E+01   2.006720E+01   2.382833E+01   8.715370E+00   8.828978E+00   9.830142E+00   3.226804E+01   4.040919E+01   3.672850E+01
   3.853877E+01   2.550049E+01   1.322003E+02   6.983762E+01   6.216953E+01   1.015860E+02   3.649849E+01   1.881612E+01   1.778764E+01   1.504873E+01   7.344819E+01   6.162611E+01   2.691734E+01   2.310232E+01   2.051148E+01   2.685577E+01   9.900877E+01   9.306010E+01   5.177837E+01   1.377435E+02   7.524458E+01   2.322185E+01   5.616688E+01   3.417222E+01   4.073958E+01   3.071467E+01   5.127734E+01   1.082135E+02   4.318974E+01   3.333169E+01   2.704799E+01   1.367200E+01   1.638374E+01   4.076582E+01   7.247385E+01   5.642958E+01   6.401066E+01   6.776183E+01   3.987150E+01   1.745809E+01   9.655630E+00   1.936660E+01   1.210341E+01   9.370272E+00   2.028357E+01   4.384592E+01   2.961801E+01   7.897517E+01   1.045012E+02   5.267161E+01   9.843822E+01   2.212650E+01   7.868713E+01   5.150586E+01   6.082986E+01   1.207265E+02   1.019664E+02   3.698471E+01   7.209592E+01   6.846854E+01   1.193512E+02   7.323080E+01   3.029588E+01   4.547129E+01   6.336447E+01   8.959711E+01   9.422121E+01   1.646163E+02   3.161884E+01   3.528132E+01   6.745615E+01   4.500673E+01   2.647575E+01   1.403838E+01   4.144773E+01   3.012793E+01   4.685275E+01   3.765919E+01   1.075535E+02   2.574587E+01   1.382397E+02   1.959851E+01   3.814600E+01   4.168587E+01   3.906635E+01   7.633994E+01   1.335262E+02   2.643568E+02   1.116549E+02   1.280144E+02   1.280144E+02   1.188010E+02   1.371979E+02   1.371979E+02   9.394383E+01   4.364795E+01   4.364795E+01   7.354681E+01   7.354681E+01   7.354681E+01   5.858506E+01   5.858506E+01   5.858506E+01   6.425193E+01   6.425193E+01   6.425193E+01   6.425193E+01   6.425193E+01   9.773171E+01   9.773171E+01   9.773171E+01   9.773171E+01   9.773171E+01   1.094594E+02   1.094594E+02   1.094594E+02   1.094594E+02   1.094594E+02   1.094594E+02   1.094594E+02   4.780682E+01   4.780682E+01   4.780682E+01   4.780682E+01   4.780682E+01   4.780682E+01   4.780682E+01   4.780682E+01   4.780682E+01   4.780682E+01   5.070166E+01   5.070166E+01   5.070166E+01   5.070166E+01   5.070166E+01   5.070166E+01   5.070166E+01   5.070166E+01   5.070166E+01   3.612119E+01   3.612119E+01   3.612119E+01   3.612119E+01   3.612119E+01   3.612119E+01   3.612119E+01   3.082707E+01   3.082707E+01   3.082707E+01   3.082707E+01   3.082707E+01   3.886840E+01   3.886840E+01   3.886840E+01   3.886840E+01   5.534968E+01   5.534968E+01   5.534968E+01   4.226441E+01   4.226441E+01   7.459080E+01   7.459080E+01   3.944005E+01   3.944005E+01   1.413033E+02   1.556304E+02   9.765768E+01   9.765768E+01   1.353144E+02   1.224837E+02   1.113893E+02   5.651692E+01   2.485329E+01   4.054197E+01   5.122262E+01   1.864100E+02   3.571547E+02   3.841117E+02   8.444512E+01   5.069004E+01   3.333406E+01   3.637933E+01   4.789355E+01   4.727792E+01   1.236718E+02   1.382026E+02   2.116606E+01   4.195291E+01   2.756034E+01   2.486945E+01   1.051210E+01   3.137033E+01   6.554708E+01   5.371116E+01   1.893101E+01   2.615608E+01   1.867717E+01   3.370005E+01   3.241142E+01   2.676428E+01   2.426972E+01   1.188557E+01   1.198864E+01   1.481544E+01   3.457013E+01   3.627470E+01   1.159855E+02
   3.347738E+01   5.931631E+01   7.241850E+01   5.118943E+01   8.233569E+01   1.197260E+02   6.106850E+01   2.701667E+01   2.193216E+01   1.295346E+01   1.320560E+02   8.119221E+01   4.611658E+01   2.576835E+01   1.746622E+01   4.265563E+01   3.812603E+01   5.795941E+01   6.656850E+01   5.209919E+01   3.459307E+01   2.785020E+01   5.670039E+01   7.437493E+01   3.648439E+01   3.692995E+01   6.262173E+01   1.000316E+02   6.017522E+01   2.805140E+01   2.507654E+01   2.368912E+01   3.442936E+01   1.320219E+02   1.345522E+02   5.926788E+01   4.429104E+01   3.753461E+01   3.193515E+01   2.575376E+01   1.008365E+01   1.104624E+01   9.622372E+00   3.462949E+01   2.630339E+01   4.393480E+01   2.952767E+01   6.915379E+01   9.809864E+01   3.228576E+01   5.010857E+01   3.705593E+01   2.391725E+01   2.367135E+01   5.059990E+01   1.112804E+02   7.172572E+01   2.719275E+01   9.852969E+01   9.082813E+01   7.526913E+01   6.470129E+01   1.726014E+01   1.546782E+01   3.119485E+01   4.000778E+01   4.670864E+01   9.152499E+01   2.224670E+01   3.838792E+01   5.330204E+01   5.080201E+01   4.004870E+01   3.757957E+01   2.423281E+01   5.581134E+01   2.591211E+01   7.464284E+01   1.195660E+02   5.138291E+01   1.193815E+02   5.523199E+01   3.512550E+01   3.859916E+01   3.652426E+01   7.292358E+01   1.265747E+02   1.754545E+02   1.227342E+02   5.837414E+01   5.837414E+01   6.653144E+01   8.506283E+01   8.506283E+01   4.969928E+01   6.102446E+01   6.102446E+01   4.581987E+01   4.581987E+01   4.581987E+01   6.278160E+01   6.278160E+01   6.278160E+01   1.123618E+02   1.123618E+02   1.123618E+02   1.123618E+02   1.123618E+02   5.775841E+01   5.775841E+01   5.775841E+01   5.775841E+01   5.775841E+01   8.595990E+01   8.595990E+01   8.595990E+01   8.595990E+01   8.595990E+01   8.595990E+01   8.595990E+01   4.137030E+01   4.137030E+01   4.137030E+01   4.137030E+01   4.137030E+01   4.137030E+01   4.137030E+01   4.137030E+01   4.137030E+01   4.137030E+01   2.027234E+01   2.027234E+01   2.027234E+01   2.027234E+01   2.027234E+01   2.027234E+01   2.027234E+01   2.027234E+01   2.027234E+01   2.151130E+01   2.151130E+01   2.151130E+01   2.151130E+01   2.151130E+01   2.151130E+01   2.151130E+01   2.098044E+01   2.098044E+01   2.098044E+01   2.098044E+01   2.098044E+01   7.230754E+01   7.230754E+01   7.230754E+01   7.230754E+01   7.966777E+01   7.966777E+01   7.966777E+01   6.650418E+01   6.650418E+01   4.988744E+01   4.988744E+01   9.018021E+01   9.018021E+01   8.282157E+01   1.354974E+02   8.211144E+01   8.211144E+01   2.113224E+02   2.641526E+02   4.559158E+01   4.092365E+01   1.916985E+01   1.325427E+01   5.638552E+01   4.661462E+01   2.559485E+02   2.941070E+02   1.107571E+02   8.027547E+01   4.064264E+01   1.778166E+01   6.376741E+01   6.456218E+01   1.070621E+02   5.456919E+01   2.962177E+01   1.262642E+02   5.251337E+01   2.472860E+01   1.837911E+01   2.688148E+01   6.512173E+01   8.863155E+01   1.677949E+01   6.010962E+01   1.719011E+01   2.733663E+01   5.404447E+01   2.529096E+01   1.376051E+01   2.395903E+01   1.525468E+01   6.898484E+00   7.171632E+01   4.386325E+01   1.111593E+02
   2.033865E+01   2.149454E+01   2.533656E+01   3.675646E+01   4.996643E+01   1.212481E+02   3.416921E+01   1.829273E+01   2.822555E+01   2.250152E+01   1.229622E+02   1.642670E+02   6.957461E+01   2.136347E+01   2.685061E+01   4.245297E+01   1.959251E+01   4.538036E+01   2.949633E+01   9.667282E+00   1.978992E+01   4.224785E+01   8.393001E+01   1.949654E+02   3.652415E+01   4.131439E+01   3.860079E+01   2.180068E+02   1.203655E+02   5.468099E+01   2.334945E+01   3.797327E+01   5.640420E+01   1.026439E+02   1.538020E+02   3.802861E+01   7.805026E+01   4.746668E+01   2.113060E+01   1.423579E+01   5.864423E+00   1.606180E+01   2.157161E+01   5.760551E+01   4.810821E+01   4.004731E+01   4.426931E+01   4.809842E+01   1.241539E+02   4.932520E+01   5.411862E+01   4.630309E+01   8.405226E+01   4.534179E+01   6.755881E+01   7.762648E+01   6.108352E+01   5.895336E+01   6.492767E+01   7.731768E+01   5.304295E+01   3.279315E+01   7.555100E+00   9.722257E+00   5.130520E+01   3.831213E+01   1.404660E+01   3.164263E+01   2.872542E+01   1.616019E+01   1.769181E+01   2.408348E+01   7.381714E+01   7.024627E+01   4.128694E+01   2.793190E+01   4.782361E+01   5.446793E+01   5.476845E+01   6.925138E+01   9.692451E+01   1.103526E+02   3.783953E+01   5.437413E+01   5.298880E+01   1.233259E+02   1.769460E+02   1.177178E+02   4.593303E+02   1.292971E+02   1.292971E+02   7.367616E+01   1.591352E+02   1.591352E+02   4.111230E+01   2.827977E+01   2.827977E+01   3.559504E+01   3.559504E+01   3.559504E+01   4.888424E+01   4.888424E+01   4.888424E+01   7.158535E+01   7.158535E+01   7.158535E+01   7.158535E+01   7.158535E+01   5.826729E+01   5.826729E+01   5.826729E+01   5.826729E+01   5.826729E+01   4.122816E+01   4.122816E+01   4.122816E+01   4.122816E+01   4.122816E+01   4.122816E+01   4.122816E+01   2.351793E+01   2.351793E+01   2.351793E+01   2.351793E+01   2.351793E+01   2.351793E+01   2.351793E+01   2.351793E+01   2.351793E+01   2.351793E+01   1.834482E+01   1.834482E+01   1.834482E+01   1.834482E+01   1.834482E+01   1.834482E+01   1.834482E+01   1.834482E+01   1.834482E+01   1.315497E+01   1.315497E+01   1.315497E+01   1.315497E+01   1.315497E+01   1.315497E+01   1.315497E+01   5.251571E+01   5.251571E+01   5.251571E+01   5.251571E+01   5.251571E+01   6.401065E+01   6.401065E+01   6.401065E+01   6.401065E+01   5.425081E+01   5.425081E+01   5.425081E+01   4.624763E+01   4.624763E+01   4.051252E+01   4.051252E+01   6.770238E+01   6.770238E+01   5.715399E+01   9.193835E+01   5.784518E+01   5.784518E+01   2.863288E+02   1.391746E+02   2.542835E+01   5.313498E+01   1.969168E+01   7.032259E+00   3.299594E+01   2.614420E+01   2.405286E+02   1.332440E+02   1.770596E+02   1.962930E+02   5.614402E+01   2.282710E+01   8.806860E+01   4.661847E+01   3.809317E+01   4.046609E+01   6.910830E+01   8.364963E+01   5.929947E+01   3.925048E+01   3.009561E+01   4.278481E+01   4.055360E+01   2.648845E+01   3.121552E+01   2.572666E+01   1.281623E+01   2.445707E+01   3.055607E+01   2.635967E+01   2.297268E+01   4.207852E+01   4.422879E+01   1.276418E+01   3.038377E+01   8.381017E+01   1.761126E+02
   1.303677E+01   3.454694E+01   1.818025E+01   2.813316E+01   2.961052E+01   8.228985E+01   3.786481E+01   2.314292E+01   4.043342E+01   7.088440E+01   2.950190E+02   2.080952E+02   3.359034E+01   2.543329E+01   3.070253E+01   2.628701E+01   1.607531E+01   1.328982E+01   2.210121E+01   2.175957E+01   7.706212E+00   3.537139E+01   1.049479E+02   2.383214E+02   1.016152E+02   3.088174E+01   2.973902E+01   2.826986E+02   7.342767E+01   3.281690E+01   3.821147E+01   3.365912E+01   5.878160E+01   9.343809E+01   1.381358E+02   7.247513E+01   6.280381E+01   2.982043E+01   2.110003E+01   1.747139E+01   7.294312E+00   2.663023E+01   2.016845E+01   3.180172E+01   6.543775E+01   4.967588E+01   6.096229E+01   1.228029E+02   1.231146E+02   3.894889E+01   1.313421E+02   4.974633E+01   4.282912E+01   3.800779E+01   8.281049E+01   9.796670E+01   5.533527E+01   5.006273E+01   8.897867E+01   6.612311E+01   2.553701E+01   1.589265E+01   5.847122E+00   9.275203E+00   3.623124E+01   2.254614E+01   1.440054E+01   2.680830E+01   1.790486E+01   1.083498E+01   1.247011E+01   1.342066E+01   5.289072E+01   8.672208E+01   4.951788E+01   1.914797E+01   4.698108E+01   4.318102E+01   4.600892E+01   8.292087E+01   6.556659E+01   1.754823E+02   6.741182E+01   1.075881E+02   8.161831E+01   1.617948E+02   1.659120E+02   5.799299E+01   6.092811E+02   1.478484E+02   1.478484E+02   2.931039E+01   5.123273E+01   5.123273E+01   2.629771E+01   1.468929E+01   1.468929E+01   1.974866E+01   1.974866E+01   1.974866E+01   4.410168E+01   4.410168E+01   4.410168E+01   7.234857E+01   7.234857E+01   7.234857E+01   7.234857E+01   7.234857E+01   6.729433E+01   6.729433E+01   6.729433E+01   6.729433E+01   6.729433E+01   4.442496E+01   4.442496E+01   4.442496E+01   4.442496E+01   4.442496E+01   4.442496E+01   4.442496E+01   1.654379E+01   1.654379E+01   1.654379E+01   1.654379E+01   1.654379E+01   1.654379E+01   1.654379E+01   1.654379E+01   1.654379E+01   1.654379E+01   4.411983E+00   4.411983E+00   4.411983E+00   4.411983E+00   4.411983E+00   4.411983E+00   4.411983E+00   4.411983E+00   4.411983E+00   9.502033E+00   9.502033E+00   9.502033E+00   9.502033E+00   9.502033E+00   9.502033E+00   9.502033E+00   4.121351E+01   4.121351E+01   4.121351E+01   4.121351E+01   4.121351E+01   4.613359E+01   4.613359E+01   4.613359E+01   4.613359E+01   3.024701E+01   3.024701E+01   3.024701E+01   2.543477E+01   2.543477E+01   2.205184E+01   2.205184E+01   3.935038E+01   3.935038E+01   5.085569E+01   4.648781E+01   1.535124E+02   1.535124E+02   1.646612E+02   1.523728E+02   4.873119E+01   8.230218E+01   2.236861E+01   2.788055E+01   3.778590E+01   3.014234E+01   1.152297E+02   1.203768E+02   1.365000E+02   1.220950E+02   8.597800E+01   5.685376E+01   1.443397E+02   4.196651E+01   1.330454E+01   4.918741E+01   1.212427E+02   1.137539E+02   9.353358E+01   8.347484E+01   4.315639E+01   3.402888E+01   3.265287E+01   3.158121E+01   5.179668E+01   2.158734E+01   1.719292E+01   2.062784E+01   3.552208E+01   2.189194E+01   3.475299E+01   6.381170E+01   3.498375E+01   1.955051E+01   4.918339E+01   5.365841E+01   1.499030E+02
   1.315946E+01   2.952597E+01   1.563955E+01   1.451125E+01   1.157413E+01   4.258703E+01   2.501987E+01   3.061001E+01   8.344837E+01   1.581201E+02   4.967961E+02   2.059524E+02   6.169899E+01   4.000269E+01   2.438412E+01   4.395831E+01   5.353516E+01   2.219496E+01   1.314257E+01   6.407454E+00   1.275996E+01   2.559092E+01   1.103973E+02   1.854778E+02   1.139070E+02   4.224852E+01   1.412078E+01   1.504959E+02   4.953530E+01   3.586872E+01   1.688813E+01   1.814300E+01   7.026305E+01   6.885236E+01   1.052058E+02   5.746594E+01   4.669191E+01   4.318986E+01   5.686970E+01   2.858545E+01   7.499321E+00   2.144933E+01   4.301874E+01   2.476412E+01   6.393364E+01   6.842188E+01   1.049726E+02   6.749065E+01   1.046215E+02   2.039081E+01   4.402538E+01   4.291827E+01   2.004901E+01   1.864975E+01   2.768864E+01   6.114674E+01   5.547456E+01   5.887455E+01   6.166288E+01   4.177744E+01   1.620547E+01   1.106598E+01   6.620771E+00   1.057139E+01   6.367229E+01   3.602182E+01   3.518170E+01   2.847089E+01   9.383085E+00   1.241258E+01   7.694086E+00   1.688029E+01   5.259013E+01   6.918837E+01   1.391175E+01   1.404941E+01   1.981707E+01   2.004483E+01   3.331300E+01   3.883415E+01   6.410792E+01   8.842701E+01   1.113131E+02   1.236267E+02   1.138700E+02   1.905619E+02   7.492404E+01   6.604795E+01   2.227986E+02   7.692941E+01   7.692941E+01   4.463219E+01   2.155354E+01   2.155354E+01   1.302667E+01   1.779046E+01   1.779046E+01   1.005702E+01   1.005702E+01   1.005702E+01   5.087317E+01   5.087317E+01   5.087317E+01   7.987901E+01   7.987901E+01   7.987901E+01   7.987901E+01   7.987901E+01   5.545401E+01   5.545401E+01   5.545401E+01   5.545401E+01   5.545401E+01   3.996796E+01   3.996796E+01   3.996796E+01   3.996796E+01   3.996796E+01   3.996796E+01   3.996796E+01   1.907215E+01   1.907215E+01   1.907215E+01   1.907215E+01   1.907215E+01   1.907215E+01   1.907215E+01   1.907215E+01   1.907215E+01   1.907215E+01   7.257890E+00   7.257890E+00   7.257890E+00   7.257890E+00   7.257890E+00   7.257890E+00   7.257890E+00   7.257890E+00   7.257890E+00   1.253259E+01   1.253259E+01   1.253259E+01   1.253259E+01   1.253259E+01   1.253259E+01   1.253259E+01   2.324166E+01   2.324166E+01   2.324166E+01   2.324166E+01   2.324166E+01   2.242686E+01   2.242686E+01   2.242686E+01   2.242686E+01   1.809098E+01   1.809098E+01   1.809098E+01   2.153664E+01   2.153664E+01   2.097714E+01   2.097714E+01   2.224334E+01   2.224334E+01   3.308007E+01   3.200808E+01   1.451043E+02   1.451043E+02   1.769088E+02   1.457797E+02   7.111596E+01   3.993386E+01   2.943615E+01   4.009963E+01   4.794388E+01   7.197441E+01   5.647298E+01   1.448560E+02   1.960233E+02   1.118775E+02   4.871159E+01   3.248134E+01   7.037595E+01   2.796284E+01   1.498454E+01   4.498488E+01   1.406765E+02   1.582586E+02   1.072014E+02   5.426584E+01   6.434129E+01   6.224825E+01   5.907467E+01   7.265372E+01   2.793067E+01   2.533012E+01   1.276013E+01   5.222883E+01   5.500567E+01   2.436951E+01   3.166048E+01   3.332517E+01   4.861209E+01   1.398924E+01   2.630913E+01   4.489012E+01   1.238527E+02
   2.395419E+01   4.885976E+01   2.376969E+01   1.322675E+01   1.557150E+01   2.212337E+01   3.365170E+01   4.426454E+01   2.047486E+02   2.591485E+02   6.642320E+02   3.390190E+02   3.826344E+01   4.094607E+01   3.395691E+01   8.132899E+01   3.952945E+01   2.366738E+01   1.570609E+01   1.275510E+01   1.146583E+01   3.183705E+01   1.147775E+02   6.754368E+01   3.104782E+01   2.434962E+01   1.477306E+01   1.209560E+02   4.270229E+01   3.958025E+01   4.147313E+01   3.337774E+01   8.999514E+01   8.135355E+01   3.952287E+01   3.013033E+01   5.501053E+01   5.602570E+01   3.985366E+01   3.679315E+01   1.654954E+01   2.550387E+01   5.517772E+01   2.972340E+01   1.411188E+02   1.939107E+02   7.169469E+01   1.279820E+02   6.920065E+01   3.551082E+01   5.670286E+01   1.914243E+01   8.705790E+00   1.136359E+01   1.248230E+01   4.216166E+01   6.425890E+01   4.065768E+01   5.373374E+01   3.719322E+01   3.143958E+00   4.972383E+00   6.672288E+00   4.434238E+00   3.526007E+01   2.074116E+01   2.973249E+01   1.744043E+01   1.870049E+01   1.642026E+01   7.376784E+00   1.602144E+01   1.974123E+01   4.515133E+01   8.532807E+00   1.283171E+01   6.436214E+00   1.661476E+01   2.568949E+01   1.730043E+01   4.668434E+01   6.138825E+01   8.743903E+01   5.102811E+01   1.716239E+02   1.370999E+02   1.318243E+02   1.164207E+02   1.277918E+02   8.001610E+01   8.001610E+01   4.594263E+01   1.477373E+01   1.477373E+01   9.091525E+00   1.287718E+01   1.287718E+01   5.302213E+00   5.302213E+00   5.302213E+00   1.908096E+01   1.908096E+01   1.908096E+01   1.386105E+02   1.386105E+02   1.386105E+02   1.386105E+02   1.386105E+02   8.692878E+01   8.692878E+01   8.692878E+01   8.692878E+01   8.692878E+01   3.120964E+01   3.120964E+01   3.120964E+01   3.120964E+01   3.120964E+01   3.120964E+01   3.120964E+01   2.387259E+01   2.387259E+01   2.387259E+01   2.387259E+01   2.387259E+01   2.387259E+01   2.387259E+01   2.387259E+01   2.387259E+01   2.387259E+01   1.695713E+01   1.695713E+01   1.695713E+01   1.695713E+01   1.695713E+01   1.695713E+01   1.695713E+01   1.695713E+01   1.695713E+01   1.047552E+01   1.047552E+01   1.047552E+01   1.047552E+01   1.047552E+01   1.047552E+01   1.047552E+01   4.044283E+01   4.044283E+01   4.044283E+01   4.044283E+01   4.044283E+01   2.224220E+01   2.224220E+01   2.224220E+01   2.224220E+01   2.092510E+01   2.092510E+01   2.092510E+01   2.190809E+01   2.190809E+01   1.388807E+01   1.388807E+01   2.676294E+01   2.676294E+01   3.256344E+01   2.728098E+01   1.768722E+02   1.768722E+02   1.835758E+02   1.618167E+02   5.045749E+01   4.368314E+01   2.852800E+01   2.886380E+01   6.758898E+01   4.990079E+01   1.225443E+02   1.430395E+02   1.201081E+02   3.600514E+01   1.907371E+01   3.418508E+01   5.457004E+01   3.622626E+01   4.818326E+01   2.646106E+01   6.392630E+01   1.786663E+02   6.902705E+01   3.303921E+01   5.027214E+01   8.553368E+01   7.582310E+01   5.904532E+01   2.653073E+01   2.209982E+01   2.911573E+01   8.649587E+01   3.114372E+01   2.204213E+01   2.877726E+01   4.015069E+01   6.920428E+01   1.808803E+01   3.693938E+01   3.811572E+01   3.901535E+01