# LPF package for  MODFLOW-2005, generated by Flopy.
        53    -1E+30         0  
         1
         0
   0.000000E+00
         0
         0
INTERNAL               1 (207E15.6) -1 #hk layer 1                    
   1.591830E+02   5.859742E+01   1.451487E+02   1.093304E+02   6.235423E+01   4.828748E+01   4.473406E+01   3.647992E+01   6.427554E+01   5.824153E+01   1.097026E+02   8.523232E+01   5.517821E+01   1.317249E+02   4.656662E+01   2.006545E+01   3.451126E+01   4.397962E+01   2.356531E+01   3.450023E+01   1.641405E+01   2.402950E+01   5.225003E+01   3.028128E+01   3.217030E+01   8.668417E+01   1.238177E+02   7.526600E+01   1.631160E+02   1.707348E+02   1.648148E+02   4.369762E+02   4.017570E+02   3.871927E+02   2.244170E+02   1.672134E+02   1.566429E+02   5.507843E+02   1.988700E+02   1.694191E+02   3.187210E+02   1.012216E+02   1.494874E+02   1.822431E+02   1.271705E+02   1.404701E+02   7.261602E+01   7.263759E+01   3.414349E+01   7.359306E+01   6.986015E+01   4.089989E+01   7.637933E+01   4.233473E+01   9.363393E+01   7.720755E+01   2.554537E+01   6.794128E+01   5.105450E+01   5.419103E+01   5.686308E+01   7.122523E+01   2.457989E+02   2.765293E+02   1.253965E+02   2.144580E+02   1.231266E+02   7.952260E+01   7.441562E+01   1.169688E+02   1.016109E+02   1.547395E+02   1.560152E+02   8.050056E+01   1.143865E+01   1.607183E+01   3.591425E+01   7.011517E+01   6.509620E+01   4.776551E+01   7.002951E+01   4.430241E+01   2.547164E+02   2.890509E+02   2.820466E+02   1.528053E+02   1.577336E+02   1.182252E+02   2.394102E+02   2.244173E+02   2.244173E+02   1.126062E+02   4.699518E+01   4.699518E+01   1.079257E+02   2.532723E+02   2.532723E+02   2.868391E+02   2.868391E+02   2.868391E+02   1.790090E+02   1.790090E+02   1.790090E+02   1.024277E+02   1.024277E+02   1.024277E+02   1.024277E+02   1.024277E+02   5.103030E+01   5.103030E+01   5.103030E+01   5.103030E+01   5.103030E+01   1.146304E+02   1.146304E+02   1.146304E+02   1.146304E+02   1.146304E+02   1.146304E+02   1.146304E+02   1.221038E+02   1.221038E+02   1.221038E+02   1.221038E+02   1.221038E+02   1.221038E+02   1.221038E+02   1.221038E+02   1.221038E+02   1.221038E+02   1.929435E+02   1.929435E+02   1.929435E+02   1.929435E+02   1.929435E+02   1.929435E+02   1.929435E+02   1.929435E+02   1.929435E+02   3.063744E+02   3.063744E+02   3.063744E+02   3.063744E+02   3.063744E+02   3.063744E+02   3.063744E+02   5.478853E+02   5.478853E+02   5.478853E+02   5.478853E+02   5.478853E+02   8.481183E+02   8.481183E+02   8.481183E+02   8.481183E+02   1.997593E+02   1.997593E+02   1.997593E+02   7.910476E+01   7.910476E+01   2.957840E+01   2.957840E+01   5.030936E+01   5.030936E+01   3.313550E+02   7.610698E+02   2.492641E+02   2.492641E+02   2.361477E+02   2.791824E+02   1.516809E+02   2.694377E+02   3.175189E+02   5.334750E+02   3.292004E+02   2.504287E+02   3.616604E+01   1.022887E+02   1.825992E+02   2.277621E+02   3.984506E+02   1.266096E+03   5.623815E+02   7.868912E+02   2.555205E+02   1.361246E+02   5.433527E+01   1.352095E+02   1.778262E+02   1.665321E+02   9.541756E+01   1.595139E+02   1.237283E+02   3.818588E+02   1.527723E+02   3.237841E+02   9.199292E+01   1.238275E+02   3.530794E+01   4.855763E+01   3.398088E+01   4.246841E+01   5.069342E+01   5.629195E+01   5.059925E+01   4.692544E+01   2.969748E+01
   1.919650E+02   9.863173E+01   7.894445E+01   6.594494E+01   6.605857E+01   4.727333E+01   4.662531E+01   3.170498E+01   2.890133E+01   1.554729E+02   2.060553E+02   7.970838E+01   8.187039E+01   9.352280E+01   1.616346E+02   1.087598E+01   1.648621E+01   2.391165E+01   2.266851E+01   2.804635E+01   6.937885E+01   5.213921E+01   7.107517E+01   2.306799E+01   2.890053E+01   4.499221E+01   1.230527E+02   1.387349E+02   1.684002E+02   1.658026E+02   3.318005E+02   4.869904E+02   2.679231E+02   2.182584E+02   3.351164E+02   7.679132E+01   1.370698E+02   4.076469E+02   2.655634E+02   1.263505E+02   9.422772E+01   1.044549E+02   6.676881E+01   9.250454E+01   8.151463E+01   2.477560E+01   1.939743E+01   4.750872E+01   5.844267E+01   5.897789E+01   5.398877E+01   7.129403E+01   7.247676E+01   7.021793E+01   1.350950E+02   1.539378E+02   5.191134E+01   6.009204E+01   7.364915E+01   1.146129E+02   4.863013E+01   9.666319E+01   8.566640E+01   2.010419E+02   1.201288E+02   9.168224E+01   8.631449E+01   1.156015E+02   1.071645E+02   6.396858E+01   8.991949E+01   1.073986E+02   1.052632E+02   5.708987E+01   3.409604E+01   2.757538E+01   4.485388E+01   4.992795E+01   2.706945E+01   6.642776E+01   2.136146E+01   5.965307E+01   2.495751E+02   1.949458E+02   1.718247E+02   1.143357E+02   1.921085E+02   2.006614E+02   1.326638E+02   1.502536E+02   1.502536E+02   7.324932E+01   6.390791E+01   6.390791E+01   8.393045E+01   1.194427E+02   1.194427E+02   1.257052E+02   1.257052E+02   1.257052E+02   2.444422E+02   2.444422E+02   2.444422E+02   1.349136E+02   1.349136E+02   1.349136E+02   1.349136E+02   1.349136E+02   5.208648E+01   5.208648E+01   5.208648E+01   5.208648E+01   5.208648E+01   6.771627E+01   6.771627E+01   6.771627E+01   6.771627E+01   6.771627E+01   6.771627E+01   6.771627E+01   1.108664E+02   1.108664E+02   1.108664E+02   1.108664E+02   1.108664E+02   1.108664E+02   1.108664E+02   1.108664E+02   1.108664E+02   1.108664E+02   1.482099E+02   1.482099E+02   1.482099E+02   1.482099E+02   1.482099E+02   1.482099E+02   1.482099E+02   1.482099E+02   1.482099E+02   2.251949E+02   2.251949E+02   2.251949E+02   2.251949E+02   2.251949E+02   2.251949E+02   2.251949E+02   3.105099E+02   3.105099E+02   3.105099E+02   3.105099E+02   3.105099E+02   3.409141E+02   3.409141E+02   3.409141E+02   3.409141E+02   8.989262E+01   8.989262E+01   8.989262E+01   7.676302E+01   7.676302E+01   7.933545E+01   7.933545E+01   5.773379E+01   5.773379E+01   2.057542E+02   5.022973E+02   4.571867E+02   4.571867E+02   3.038298E+02   1.899898E+02   9.081252E+01   1.985375E+02   2.516240E+02   4.582704E+02   2.871047E+02   4.116290E+02   1.025376E+02   1.903731E+02   2.092710E+02   1.476173E+02   2.181055E+02   3.588011E+02   5.693486E+02   4.927502E+02   1.218429E+02   8.525859E+01   6.906016E+01   1.185334E+02   1.411999E+02   1.718800E+02   1.905098E+02   6.834653E+01   1.503168E+02   3.915685E+02   1.883548E+02   1.891019E+02   1.681798E+02   1.242335E+02   2.076350E+01   2.836244E+01   2.686375E+01   3.025141E+01   4.166665E+01   4.095313E+01   1.935454E+01   3.089738E+01   3.410806E+01
   2.715822E+02   3.263859E+02   5.767242E+01   9.532052E+01   5.019768E+01   4.306718E+01   4.073800E+01   8.052110E+01   6.267746E+01   1.385879E+02   1.452201E+02   6.913391E+01   4.497979E+01   3.881514E+01   8.834027E+01   8.612322E+00   4.410866E+00   8.922505E+00   1.546911E+01   3.259771E+01   7.094595E+01   9.936589E+01   1.581814E+02   3.383632E+01   2.019593E+01   5.034311E+01   6.032936E+01   1.712469E+02   2.824506E+02   1.106554E+02   1.857076E+02   6.951951E+02   6.721741E+02   9.074497E+02   4.904674E+02   6.051714E+01   1.038576E+02   3.856528E+02   5.813729E+02   1.415438E+02   3.963708E+01   1.066637E+02   4.030986E+01   1.180788E+02   3.560240E+01   2.090815E+01   3.926538E+01   6.213462E+01   8.904973E+01   6.359802E+01   3.789221E+01   5.097451E+01   5.976425E+01   8.321783E+01   1.020669E+02   8.174522E+01   5.395937E+01   6.433241E+01   3.139852E+01   8.656766E+01   9.127549E+01   7.099321E+01   8.822475E+01   4.337650E+02   1.578273E+02   2.303282E+02   1.134335E+02   8.775488E+01   7.130810E+01   2.453272E+01   8.667728E+01   6.295879E+01   1.566160E+02   3.674155E+01   8.547464E+01   5.992698E+01   7.603847E+01   5.229502E+01   5.099367E+01   8.116022E+01   2.800677E+01   4.651377E+01   1.732836E+02   1.759033E+02   1.137058E+02   1.312359E+02   2.004092E+02   1.300773E+02   9.795341E+01   9.069564E+01   9.069564E+01   6.409241E+01   1.358829E+02   1.358829E+02   1.041668E+02   4.188509E+01   4.188509E+01   9.744704E+01   9.744704E+01   9.744704E+01   1.581415E+02   1.581415E+02   1.581415E+02   2.701453E+02   2.701453E+02   2.701453E+02   2.701453E+02   2.701453E+02   9.489704E+01   9.489704E+01   9.489704E+01   9.489704E+01   9.489704E+01   5.889655E+01   5.889655E+01   5.889655E+01   5.889655E+01   5.889655E+01   5.889655E+01   5.889655E+01   2.007420E+02   2.007420E+02   2.007420E+02   2.007420E+02   2.007420E+02   2.007420E+02   2.007420E+02   2.007420E+02   2.007420E+02   2.007420E+02   2.006698E+02   2.006698E+02   2.006698E+02   2.006698E+02   2.006698E+02   2.006698E+02   2.006698E+02   2.006698E+02   2.006698E+02   1.730119E+02   1.730119E+02   1.730119E+02   1.730119E+02   1.730119E+02   1.730119E+02   1.730119E+02   2.270424E+02   2.270424E+02   2.270424E+02   2.270424E+02   2.270424E+02   2.720835E+02   2.720835E+02   2.720835E+02   2.720835E+02   5.918695E+01   5.918695E+01   5.918695E+01   6.203016E+01   6.203016E+01   9.003885E+01   9.003885E+01   9.745786E+01   9.745786E+01   1.774434E+02   5.161876E+02   4.874174E+02   4.874174E+02   3.680204E+02   1.304380E+02   1.244779E+02   7.154882E+01   1.613028E+02   2.544710E+02   3.568800E+02   2.496386E+02   1.341482E+02   7.445309E+01   1.123887E+02   1.300373E+02   1.125875E+02   1.698822E+02   5.383372E+02   5.625474E+02   6.917145E+01   6.350088E+01   9.629614E+01   1.418971E+02   2.279371E+02   2.357794E+02   1.520497E+02   1.737116E+02   1.655158E+02   3.912775E+02   1.505166E+02   2.259724E+02   1.079936E+02   5.091816E+01   1.896878E+01   1.823656E+01   3.216170E+01   2.301312E+01   3.079387E+01   2.907803E+01   2.859213E+01   7.843456E+01   5.160308E+01
   3.794341E+02   4.880930E+02   1.893481E+02   5.254354E+01   5.650650E+01   5.835708E+01   6.777106E+01   8.096407E+01   7.895036E+01   9.496223E+01   6.989628E+01   3.281895E+01   2.753362E+01   3.649141E+01   2.939139E+01   2.619061E+01   1.022844E+01   1.719842E+01   2.325411E+01   4.953125E+01   9.282101E+01   6.038641E+01   1.210560E+02   3.940212E+01   2.287603E+01   3.622401E+01   5.311545E+01   1.541467E+02   2.306001E+02   1.184852E+02   2.680613E+02   4.221119E+02   3.153121E+02   5.110981E+02   1.789830E+02   8.640898E+01   1.556605E+02   2.923363E+02   3.641569E+02   3.783889E+01   4.724506E+01   1.069493E+02   3.967172E+01   1.291709E+02   4.000254E+01   1.561240E+01   4.185921E+01   3.892235E+01   6.598858E+01   4.605096E+01   6.356579E+01   5.378236E+01   9.695921E+01   1.023514E+02   1.414391E+02   7.234464E+01   9.029641E+01   4.686227E+01   8.042098E+01   6.494952E+01   1.094525E+02   2.613408E+02   1.338833E+02   3.040229E+02   4.021669E+02   1.685844E+02   7.814997E+01   5.938985E+01   3.738373E+01   2.839679E+01   2.953174E+01   1.146089E+01   8.727283E+01   1.272755E+02   4.524088E+01   6.391252E+01   9.789282E+01   4.670051E+01   7.715034E+01   6.901634E+01   6.308257E+01   5.706650E+01   1.448040E+02   1.585920E+02   1.469593E+02   1.263826E+02   3.197632E+02   2.260498E+02   1.624003E+02   6.516121E+01   6.516121E+01   4.461239E+01   4.625616E+01   4.625616E+01   3.865812E+01   6.027002E+01   6.027002E+01   1.167337E+02   1.167337E+02   1.167337E+02   1.672646E+02   1.672646E+02   1.672646E+02   3.032654E+02   3.032654E+02   3.032654E+02   3.032654E+02   3.032654E+02   1.349404E+02   1.349404E+02   1.349404E+02   1.349404E+02   1.349404E+02   9.217380E+01   9.217380E+01   9.217380E+01   9.217380E+01   9.217380E+01   9.217380E+01   9.217380E+01   1.332579E+02   1.332579E+02   1.332579E+02   1.332579E+02   1.332579E+02   1.332579E+02   1.332579E+02   1.332579E+02   1.332579E+02   1.332579E+02   2.123951E+02   2.123951E+02   2.123951E+02   2.123951E+02   2.123951E+02   2.123951E+02   2.123951E+02   2.123951E+02   2.123951E+02   1.760644E+02   1.760644E+02   1.760644E+02   1.760644E+02   1.760644E+02   1.760644E+02   1.760644E+02   3.544796E+02   3.544796E+02   3.544796E+02   3.544796E+02   3.544796E+02   2.250724E+02   2.250724E+02   2.250724E+02   2.250724E+02   6.076818E+01   6.076818E+01   6.076818E+01   8.112039E+01   8.112039E+01   6.676125E+01   6.676125E+01   1.814498E+02   1.814498E+02   1.694804E+02   1.264407E+02   3.217551E+02   3.217551E+02   9.621909E+01   7.142522E+01   9.510887E+01   9.136957E+01   9.387978E+01   1.966273E+02   2.726391E+02   1.006494E+02   2.305307E+02   1.868579E+02   1.059547E+02   7.184315E+01   9.068941E+01   1.408413E+02   2.375134E+02   1.958356E+02   7.092364E+01   1.162628E+02   1.915773E+02   3.101891E+02   5.411922E+02   3.742616E+02   2.719850E+02   1.690529E+02   1.129264E+02   3.064925E+02   1.498972E+02   1.645987E+02   1.325354E+02   8.399873E+01   3.309658E+01   1.453412E+01   7.518806E+01   2.854961E+01   3.836190E+01   3.077453E+01   2.750301E+01   5.748066E+01   1.088760E+02
   4.959571E+02   4.980345E+02   1.577728E+02   5.451228E+01   3.888196E+01   4.984565E+01   7.126498E+01   2.736175E+02   1.694154E+02   1.035616E+02   1.230648E+02   2.386881E+01   3.818960E+01   2.769462E+01   2.544205E+01   1.870518E+01   4.596817E+01   3.279604E+01   6.778708E+01   1.031646E+02   1.166288E+02   6.736790E+01   1.398293E+02   6.385919E+01   2.474969E+01   4.899602E+01   8.382082E+01   5.266267E+01   1.234724E+02   1.881349E+02   2.391773E+02   4.068109E+02   4.345760E+02   5.287971E+02   1.854932E+02   2.710331E+02   2.600440E+02   2.003795E+02   2.492389E+02   7.100206E+01   2.594066E+01   8.814139E+01   5.664681E+01   7.291071E+01   6.554774E+01   2.562167E+01   3.542217E+01   7.025777E+01   5.915969E+01   7.310190E+01   8.739810E+01   7.283549E+01   1.158177E+02   2.491392E+02   1.042751E+02   1.216114E+02   8.147457E+01   4.069404E+01   1.291711E+02   7.771442E+01   6.288225E+01   1.605035E+02   1.220944E+02   3.586750E+02   3.629278E+02   2.079629E+02   6.776187E+01   6.376180E+01   3.803534E+01   3.344239E+01   4.424743E+01   1.972879E+01   9.434595E+01   1.484987E+02   6.206807E+01   7.285001E+01   8.100603E+01   3.131243E+01   1.871513E+01   5.470766E+01   2.598653E+01   6.765484E+01   7.862043E+01   6.259480E+01   8.233578E+01   2.272490E+02   3.571548E+02   3.952056E+02   2.959041E+02   9.235204E+01   9.235204E+01   7.801913E+01   4.050908E+01   4.050908E+01   2.360786E+01   2.975339E+01   2.975339E+01   1.073602E+02   1.073602E+02   1.073602E+02   1.951111E+02   1.951111E+02   1.951111E+02   2.184257E+02   2.184257E+02   2.184257E+02   2.184257E+02   2.184257E+02   1.646869E+02   1.646869E+02   1.646869E+02   1.646869E+02   1.646869E+02   2.184944E+02   2.184944E+02   2.184944E+02   2.184944E+02   2.184944E+02   2.184944E+02   2.184944E+02   1.376899E+02   1.376899E+02   1.376899E+02   1.376899E+02   1.376899E+02   1.376899E+02   1.376899E+02   1.376899E+02   1.376899E+02   1.376899E+02   1.607386E+02   1.607386E+02   1.607386E+02   1.607386E+02   1.607386E+02   1.607386E+02   1.607386E+02   1.607386E+02   1.607386E+02   8.505528E+01   8.505528E+01   8.505528E+01   8.505528E+01   8.505528E+01   8.505528E+01   8.505528E+01   7.156982E+01   7.156982E+01   7.156982E+01   7.156982E+01   7.156982E+01   6.291814E+01   6.291814E+01   6.291814E+01   6.291814E+01   1.001656E+02   1.001656E+02   1.001656E+02   7.365656E+01   7.365656E+01   3.402758E+01   3.402758E+01   1.030296E+02   1.030296E+02   2.202544E+02   1.161369E+02   4.221991E+02   4.221991E+02   7.926713E+01   3.494909E+01   6.838010E+01   8.863664E+01   9.485389E+01   1.589012E+02   1.514214E+02   1.890607E+02   2.795931E+02   2.697192E+02   1.433254E+02   1.001793E+02   5.746700E+01   9.590730E+01   2.607752E+02   1.567588E+02   1.317355E+02   8.986967E+01   1.381620E+02   1.609518E+02   4.891154E+02   4.926768E+02   2.613013E+02   1.795194E+02   2.124152E+02   3.429126E+02   2.630802E+02   2.039345E+02   1.926137E+02   1.644241E+02   3.653791E+01   1.567405E+01   5.205981E+01   5.963137E+01   6.683136E+01   3.903581E+01   5.095944E+01   9.055111E+01   8.764626E+01
   3.309089E+02   1.829714E+02   2.179295E+02   4.425092E+01   7.231139E+01   8.920610E+01   1.357773E+02   8.296242E+01   2.675938E+02   2.166094E+02   1.520143E+02   7.440266E+01   5.543617E+01   2.245978E+01   1.527635E+01   1.367309E+01   3.311183E+01   4.415963E+01   6.825743E+01   4.886700E+01   8.926035E+01   9.862875E+01   9.970229E+01   9.381682E+01   4.021517E+01   8.531870E+01   1.298894E+02   6.625193E+01   1.305867E+02   2.009805E+02   1.867737E+02   2.621908E+02   2.063085E+02   3.773877E+02   2.075056E+02   2.416424E+02   2.201035E+02   1.196580E+02   2.217479E+02   7.757177E+01   1.692389E+01   1.192575E+02   6.172118E+01   1.858490E+01   4.054935E+01   2.701890E+01   5.235188E+01   7.340477E+01   4.693904E+01   4.774434E+01   9.203743E+01   4.320176E+01   1.811286E+02   1.456837E+02   8.792660E+01   2.251895E+02   1.256966E+02   8.402757E+01   8.436578E+01   4.412983E+01   5.285278E+01   1.344624E+02   8.744315E+01   1.827413E+02   1.233581E+02   2.468560E+02   8.588507E+01   1.776363E+02   4.125226E+01   4.526264E+01   2.778555E+01   3.590850E+01   7.363067E+01   1.512650E+02   3.731506E+01   3.217400E+01   4.922245E+01   3.832824E+01   3.401366E+01   4.722976E+01   2.951143E+01   5.131861E+01   6.087193E+01   3.944995E+01   6.271690E+01   2.178193E+02   4.671893E+02   4.796877E+02   1.373894E+02   4.987053E+01   4.987053E+01   4.235622E+01   4.186362E+01   4.186362E+01   1.288434E+01   2.136997E+01   2.136997E+01   1.335016E+02   1.335016E+02   1.335016E+02   2.039296E+02   2.039296E+02   2.039296E+02   1.190929E+02   1.190929E+02   1.190929E+02   1.190929E+02   1.190929E+02   2.507332E+02   2.507332E+02   2.507332E+02   2.507332E+02   2.507332E+02   1.629043E+02   1.629043E+02   1.629043E+02   1.629043E+02   1.629043E+02   1.629043E+02   1.629043E+02   1.331960E+02   1.331960E+02   1.331960E+02   1.331960E+02   1.331960E+02   1.331960E+02   1.331960E+02   1.331960E+02   1.331960E+02   1.331960E+02   3.504627E+02   3.504627E+02   3.504627E+02   3.504627E+02   3.504627E+02   3.504627E+02   3.504627E+02   3.504627E+02   3.504627E+02   7.690833E+01   7.690833E+01   7.690833E+01   7.690833E+01   7.690833E+01   7.690833E+01   7.690833E+01   6.860748E+01   6.860748E+01   6.860748E+01   6.860748E+01   6.860748E+01   6.338694E+01   6.338694E+01   6.338694E+01   6.338694E+01   1.326567E+02   1.326567E+02   1.326567E+02   7.407715E+01   7.407715E+01   2.014444E+01   2.014444E+01   7.937366E+01   7.937366E+01   9.162054E+01   7.678560E+01   1.026798E+02   1.026798E+02   8.310927E+01   4.964737E+01   7.495727E+01   1.676454E+02   4.883802E+01   1.106541E+02   1.296592E+02   2.133477E+02   2.139228E+02   2.350645E+02   1.526684E+02   8.969373E+01   4.367402E+01   5.348925E+01   1.276876E+02   9.557199E+01   3.265129E+02   8.764879E+01   1.798435E+02   1.818367E+02   3.983625E+02   1.750017E+02   4.476332E+02   1.614734E+02   1.692066E+02   2.567946E+02   7.135082E+02   2.560399E+02   4.061736E+02   2.662094E+02   7.577031E+01   7.411976E+01   3.088855E+01   2.650629E+01   4.021487E+01   2.024537E+01   1.778030E+01   8.323357E+01   1.534923E+02
   1.456043E+02   1.168562E+02   1.406912E+02   2.386708E+01   4.081655E+01   1.643871E+02   1.070361E+02   8.308541E+01   2.604121E+02   3.242602E+02   1.895589E+02   1.563753E+02   7.875218E+01   3.038226E+01   8.734125E+00   1.339516E+01   2.150577E+01   4.256596E+01   2.794306E+01   2.615055E+01   7.095351E+01   1.142273E+02   1.092996E+02   9.670695E+01   7.214709E+01   1.436846E+02   9.951242E+01   1.054970E+02   2.345239E+02   4.610951E+02   8.895560E+01   2.338482E+02   2.179062E+02   1.828005E+02   3.670356E+02   2.236460E+02   1.304253E+02   2.039335E+02   1.023659E+02   4.704107E+01   2.122635E+01   5.983638E+01   3.189510E+01   3.605972E+01   6.649285E+01   4.375309E+01   5.212555E+01   1.267990E+02   6.212891E+01   8.423076E+01   8.552692E+01   3.995519E+01   1.733046E+02   1.683035E+02   1.653391E+02   1.921421E+02   1.321870E+02   5.793784E+01   1.000784E+02   3.246444E+01   2.933532E+01   1.994607E+02   6.882909E+01   1.687276E+02   1.415736E+02   8.279805E+01   5.006603E+01   1.262790E+02   6.100558E+01   5.205427E+01   3.611946E+01   2.479790E+01   3.583649E+01   9.176418E+01   1.323462E+01   6.939301E+01   5.178174E+01   3.178983E+01   2.931265E+01   6.430202E+01   5.139767E+01   1.017316E+02   7.714933E+01   1.397045E+01   1.260004E+02   2.188818E+02   6.733500E+02   3.593954E+02   1.658482E+02   1.023314E+02   1.023314E+02   3.004973E+01   2.359544E+01   2.359544E+01   1.966454E+01   1.475946E+01   1.475946E+01   7.401839E+01   7.401839E+01   7.401839E+01   6.522327E+02   6.522327E+02   6.522327E+02   2.023087E+02   2.023087E+02   2.023087E+02   2.023087E+02   2.023087E+02   6.121987E+02   6.121987E+02   6.121987E+02   6.121987E+02   6.121987E+02   4.165187E+02   4.165187E+02   4.165187E+02   4.165187E+02   4.165187E+02   4.165187E+02   4.165187E+02   1.920016E+02   1.920016E+02   1.920016E+02   1.920016E+02   1.920016E+02   1.920016E+02   1.920016E+02   1.920016E+02   1.920016E+02   1.920016E+02   5.237701E+02   5.237701E+02   5.237701E+02   5.237701E+02   5.237701E+02   5.237701E+02   5.237701E+02   5.237701E+02   5.237701E+02   1.301289E+02   1.301289E+02   1.301289E+02   1.301289E+02   1.301289E+02   1.301289E+02   1.301289E+02   7.315355E+01   7.315355E+01   7.315355E+01   7.315355E+01   7.315355E+01   1.041808E+02   1.041808E+02   1.041808E+02   1.041808E+02   1.004928E+02   1.004928E+02   1.004928E+02   3.725670E+01   3.725670E+01   2.009123E+01   2.009123E+01   5.153709E+01   5.153709E+01   1.015839E+02   5.319748E+01   5.631194E+01   5.631194E+01   4.424901E+01   3.700828E+01   1.064338E+02   4.953674E+01   7.811344E+01   8.332695E+01   1.590092E+02   2.761288E+02   1.726831E+02   3.099816E+02   9.291486E+01   1.097032E+02   6.791512E+01   8.376290E+01   1.120511E+02   1.968658E+02   2.130448E+02   8.870901E+01   3.061836E+02   3.198387E+02   3.582695E+02   6.063165E+02   4.039513E+02   1.976044E+02   6.676334E+01   2.564842E+02   6.034934E+02   2.700419E+02   3.750533E+02   3.902690E+02   6.159666E+01   8.730064E+01   1.699488E+01   4.068830E+01   7.476205E+01   7.462658E+01   2.552252E+01   9.981929E+01   3.120396E+02
   1.527738E+02   1.221773E+02   2.436827E+01   3.392765E+01   9.026119E+01   1.144974E+02   3.058367E+01   1.928111E+02   3.215953E+02   3.080509E+02   1.018228E+02   1.342619E+02   5.807882E+01   7.082097E+01   1.942066E+01   1.391920E+01   1.290469E+01   4.322172E+01   3.513419E+01   9.970723E+01   4.066926E+01   7.992445E+01   1.007415E+02   1.781408E+02   1.262441E+02   9.471348E+01   2.316758E+02   9.952026E+01   2.203994E+02   2.900134E+02   1.237188E+02   1.104993E+02   1.771233E+02   1.215173E+02   3.347207E+02   1.734348E+02   8.410263E+01   1.466641E+02   8.553658E+01   2.881806E+01   2.835878E+01   3.871066E+01   5.308553E+01   6.327537E+01   4.141141E+01   2.038686E+01   3.472402E+01   1.059759E+02   4.694147E+01   1.676307E+02   1.157142E+02   1.003075E+02   3.440983E+02   1.817806E+02   2.257391E+02   2.958508E+02   1.424659E+02   7.853603E+01   1.192703E+02   4.232165E+01   2.149244E+01   9.490318E+01   8.430226E+01   1.655372E+02   1.956427E+02   1.043512E+02   4.557860E+01   6.340877E+01   3.264223E+01   5.255838E+01   4.663525E+01   2.510929E+01   4.390371E+01   9.961523E+01   4.025724E+01   2.071129E+01   2.728296E+01   2.570928E+01   2.788607E+01   6.024427E+01   7.603099E+01   3.459038E+01   5.400878E+01   1.729183E+01   7.811122E+01   1.525547E+02   4.565467E+02   3.010917E+02   1.303006E+02   1.327135E+02   1.327135E+02   3.642800E+01   3.322935E+01   3.322935E+01   2.721448E+01   3.744814E+01   3.744814E+01   5.665486E+01   5.665486E+01   5.665486E+01   1.754109E+02   1.754109E+02   1.754109E+02   1.841812E+02   1.841812E+02   1.841812E+02   1.841812E+02   1.841812E+02   2.160445E+02   2.160445E+02   2.160445E+02   2.160445E+02   2.160445E+02   2.998081E+02   2.998081E+02   2.998081E+02   2.998081E+02   2.998081E+02   2.998081E+02   2.998081E+02   4.837751E+02   4.837751E+02   4.837751E+02   4.837751E+02   4.837751E+02   4.837751E+02   4.837751E+02   4.837751E+02   4.837751E+02   4.837751E+02   4.957751E+02   4.957751E+02   4.957751E+02   4.957751E+02   4.957751E+02   4.957751E+02   4.957751E+02   4.957751E+02   4.957751E+02   3.596884E+02   3.596884E+02   3.596884E+02   3.596884E+02   3.596884E+02   3.596884E+02   3.596884E+02   1.729339E+02   1.729339E+02   1.729339E+02   1.729339E+02   1.729339E+02   1.113056E+02   1.113056E+02   1.113056E+02   1.113056E+02   7.619098E+01   7.619098E+01   7.619098E+01   5.870658E+01   5.870658E+01   3.900430E+01   3.900430E+01   6.677074E+01   6.677074E+01   6.291635E+01   8.991814E+01   5.202575E+01   5.202575E+01   4.560199E+01   1.033223E+02   2.531457E+02   7.766543E+01   1.614516E+02   1.274270E+02   2.397038E+02   2.346661E+02   1.922829E+02   2.566633E+02   8.476515E+01   9.892784E+01   5.241559E+01   7.537957E+01   1.785759E+02   1.838860E+02   2.185512E+02   2.432888E+02   2.804237E+02   5.856077E+02   2.546897E+02   1.599844E+02   1.704306E+02   3.543899E+02   1.355476E+02   1.805488E+02   4.406733E+02   6.009702E+02   4.821308E+02   1.324274E+02   5.488531E+01   4.142276E+01   2.000298E+01   2.169964E+01   3.642953E+01   9.350355E+01   6.719106E+01   6.639217E+01   8.077094E+01
   1.681225E+02   1.404779E+02   1.123524E+02   2.874889E+01   6.380980E+01   1.800144E+02   5.959156E+01   2.090290E+02   3.475503E+02   5.536035E+02   5.545199E+02   1.295782E+02   6.555461E+01   1.342957E+02   5.665205E+01   2.490171E+01   4.016067E+01   7.078989E+01   3.023940E+01   8.717542E+01   2.839971E+01   7.493287E+01   1.446455E+02   1.957545E+02   1.132755E+02   7.188691E+01   1.377322E+02   2.070186E+02   3.210433E+02   3.259308E+02   1.067691E+02   9.765582E+01   1.771474E+02   1.930427E+02   2.502439E+02   1.300537E+02   7.373969E+01   7.311070E+01   5.650301E+01   7.894800E+01   4.587383E+01   3.503572E+01   4.681025E+01   2.183624E+01   6.145890E+01   1.551517E+01   1.712685E+01   7.992048E+01   6.415527E+01   1.553792E+02   1.723129E+02   9.190584E+01   1.268034E+02   1.385772E+02   1.542886E+02   1.635117E+02   1.824197E+02   7.835236E+01   6.414264E+01   3.996668E+01   2.668700E+01   2.414085E+01   1.552001E+02   5.885744E+01   1.201681E+02   1.614674E+02   8.129254E+01   7.064464E+01   3.101340E+01   4.250788E+01   7.096495E+01   3.578709E+01   5.313073E+01   8.117348E+01   4.845569E+01   1.651423E+01   1.823902E+01   2.078996E+01   2.959565E+01   6.882870E+01   4.918041E+01   4.146809E+01   2.774540E+01   2.426948E+01   2.085503E+02   2.275700E+02   3.352892E+02   3.732509E+02   2.416083E+02   1.267926E+02   1.267926E+02   3.676807E+01   5.397562E+01   5.397562E+01   5.326562E+01   1.314114E+02   1.314114E+02   9.097069E+01   9.097069E+01   9.097069E+01   1.263743E+02   1.263743E+02   1.263743E+02   1.219723E+02   1.219723E+02   1.219723E+02   1.219723E+02   1.219723E+02   1.757054E+02   1.757054E+02   1.757054E+02   1.757054E+02   1.757054E+02   2.416374E+02   2.416374E+02   2.416374E+02   2.416374E+02   2.416374E+02   2.416374E+02   2.416374E+02   3.209819E+02   3.209819E+02   3.209819E+02   3.209819E+02   3.209819E+02   3.209819E+02   3.209819E+02   3.209819E+02   3.209819E+02   3.209819E+02   4.068017E+02   4.068017E+02   4.068017E+02   4.068017E+02   4.068017E+02   4.068017E+02   4.068017E+02   4.068017E+02   4.068017E+02   6.227301E+02   6.227301E+02   6.227301E+02   6.227301E+02   6.227301E+02   6.227301E+02   6.227301E+02   1.710004E+02   1.710004E+02   1.710004E+02   1.710004E+02   1.710004E+02   1.856350E+02   1.856350E+02   1.856350E+02   1.856350E+02   8.331005E+01   8.331005E+01   8.331005E+01   6.740031E+01   6.740031E+01   5.389863E+01   5.389863E+01   1.075476E+02   1.075476E+02   4.570795E+01   6.507506E+01   5.028065E+01   5.028065E+01   1.098471E+02   1.491165E+02   3.116716E+02   1.056838E+02   1.579408E+02   1.238813E+02   2.088889E+02   2.256913E+02   2.256436E+02   2.504916E+02   1.309743E+02   1.520685E+02   3.926119E+01   4.035253E+01   2.685333E+02   1.999464E+02   2.157437E+02   3.559356E+02   3.470099E+02   3.070376E+02   1.407065E+02   5.070457E+01   1.148248E+02   6.121722E+02   1.392162E+02   2.516710E+02   2.406114E+02   4.324114E+02   3.044937E+02   1.098294E+02   5.461493E+01   1.712035E+01   1.851848E+01   1.350999E+01   3.637931E+01   1.807308E+02   1.851465E+02   5.946565E+01   7.934243E+01