# LPF package for  MODFLOW-2005, generated by Flopy.
        53    -1E+30         0  
         1
         0
   0.000000E+00
         0
         0
INTERNAL               1 (207E15.6) -1 #hk layer 1                    
   2.005774E+01   5.378170E+01   8.424805E+01   2.147919E+02   9.063522E+01   9.919814E+01   9.229062E+01   2.025447E+02   1.461172E+02   9.730888E+01   1.995270E+01   3.282426E+01   7.135129E+01   1.428081E+01   8.550781E+01   3.947828E+01   2.324907E+01   5.520559E+01   2.700580E+01   2.195934E+01   5.905712E+01   6.792385E+01   2.538572E+01   4.131129E+01   1.130543E+02   1.633558E+02   1.479141E+02   1.190074E+02   2.369246E+01   4.276570E+01   2.578594E+01   1.959280E+01   3.680362E+01   3.437100E+01   2.205699E+02   1.517229E+02   1.387798E+02   8.146335E+01   1.092072E+02   1.010137E+02   3.588799E+01   7.185160E+01   1.964803E+01   2.263172E+01   1.264241E+02   9.060365E+01   7.152718E+01   4.417043E+01   5.827726E+01   9.612481E+01   5.915935E+01   5.282021E+01   2.857446E+02   5.139713E+02   2.106646E+02   1.684658E+02   1.069314E+02   4.357374E+01   3.906849E+01   2.079732E+01   4.902822E+01   3.171968E+01   6.886521E+01   6.632946E+01   8.725123E+01   1.108987E+02   2.523959E+02   6.907626E+01   6.285877E+01   5.123658E+01   3.371059E+01   2.924583E+01   3.929479E+01   2.425789E+01   4.091421E+01   5.650980E+01   2.576672E+01   3.116430E+01   3.118867E+01   1.690703E+01   1.555930E+01   1.318136E+01   2.572349E+01   1.221863E+02   1.387455E+02   1.298020E+02   1.031942E+02   3.481032E+01   6.505625E+01   4.324798E+01   4.324798E+01   3.176856E+01   4.021254E+01   4.021254E+01   1.378005E+01   2.387385E+01   2.387385E+01   1.626649E+01   1.626649E+01   1.626649E+01   2.118901E+01   2.118901E+01   2.118901E+01   1.948429E+01   1.948429E+01   1.948429E+01   1.948429E+01   1.948429E+01   2.685025E+01   2.685025E+01   2.685025E+01   2.685025E+01   2.685025E+01   4.180043E+01   4.180043E+01   4.180043E+01   4.180043E+01   4.180043E+01   4.180043E+01   4.180043E+01   1.104884E+02   1.104884E+02   1.104884E+02   1.104884E+02   1.104884E+02   1.104884E+02   1.104884E+02   1.104884E+02   1.104884E+02   1.104884E+02   2.132194E+02   2.132194E+02   2.132194E+02   2.132194E+02   2.132194E+02   2.132194E+02   2.132194E+02   2.132194E+02   2.132194E+02   6.616310E+01   6.616310E+01   6.616310E+01   6.616310E+01   6.616310E+01   6.616310E+01   6.616310E+01   2.081013E+02   2.081013E+02   2.081013E+02   2.081013E+02   2.081013E+02   1.020261E+02   1.020261E+02   1.020261E+02   1.020261E+02   5.033389E+01   5.033389E+01   5.033389E+01   7.813242E+01   7.813242E+01   7.370827E+01   7.370827E+01   1.698693E+01   1.698693E+01   1.643888E+01   1.571344E+01   5.570879E+01   5.570879E+01   1.252078E+02   2.171257E+02   2.194371E+02   7.738120E+01   3.264661E+01   5.447512E+01   4.573920E+01   4.436257E+01   5.053486E+01   1.164272E+01   4.784105E+01   4.735661E+01   2.779173E+01   4.685823E+01   2.523588E+01   3.168237E+01   5.676090E+01   3.212715E+01   1.429707E+01   5.139832E+01   1.967987E+01   3.028679E+01   5.062860E+01   4.155587E+01   5.970569E+01   4.262208E+01   9.253547E+00   1.031613E+01   1.346594E+01   2.715478E+01   1.895364E+01   7.539353E+00   1.638818E+01   1.620733E+01   2.141423E+01   4.355512E+01   4.688829E+01   5.277961E+01   4.979004E+01
   2.561106E+01   4.453080E+01   1.052374E+02   2.040439E+02   2.564886E+02   1.305266E+02   1.133487E+02   1.891966E+02   1.306643E+02   1.047872E+02   2.156912E+01   3.294562E+01   5.420774E+01   3.489050E+01   6.334838E+01   9.857341E+01   4.993158E+01   5.703259E+01   2.149253E+01   1.768731E+01   6.693951E+01   7.152096E+01   3.230969E+01   2.794062E+01   7.274533E+01   1.239955E+02   6.027635E+01   9.365503E+01   3.542223E+01   3.712476E+01   4.287780E+01   2.071544E+01   2.843160E+01   9.904247E+01   1.072011E+02   3.977842E+01   2.853140E+01   6.847318E+01   7.355850E+01   7.865484E+01   4.197570E+01   6.325584E+01   5.270395E+01   2.657762E+01   1.114905E+02   4.557650E+01   1.830043E+02   2.055843E+02   4.991190E+01   7.401933E+01   5.391166E+01   4.581883E+01   5.027136E+02   3.865391E+02   1.461297E+02   8.677325E+01   5.192502E+01   4.052276E+01   5.324659E+01   4.084269E+01   4.621726E+01   4.344952E+01   2.807816E+01   6.603822E+01   1.064958E+02   6.041182E+01   1.083640E+02   2.748579E+01   5.340960E+01   4.258192E+01   4.006940E+01   3.156617E+01   5.415595E+01   2.449672E+01   7.323195E+01   5.576801E+01   4.006757E+01   7.771296E+01   4.372548E+01   4.916538E+01   2.825154E+01   8.395146E+00   3.000014E+01   2.524588E+01   9.820268E+01   6.238231E+01   1.273633E+02   7.075960E+01   3.115630E+01   6.401111E+01   6.401111E+01   3.606214E+01   4.703012E+01   4.703012E+01   2.276796E+01   3.034454E+01   3.034454E+01   1.130237E+01   1.130237E+01   1.130237E+01   2.656883E+01   2.656883E+01   2.656883E+01   2.882869E+01   2.882869E+01   2.882869E+01   2.882869E+01   2.882869E+01   2.758753E+01   2.758753E+01   2.758753E+01   2.758753E+01   2.758753E+01   6.838919E+01   6.838919E+01   6.838919E+01   6.838919E+01   6.838919E+01   6.838919E+01   6.838919E+01   1.341759E+02   1.341759E+02   1.341759E+02   1.341759E+02   1.341759E+02   1.341759E+02   1.341759E+02   1.341759E+02   1.341759E+02   1.341759E+02   2.162939E+02   2.162939E+02   2.162939E+02   2.162939E+02   2.162939E+02   2.162939E+02   2.162939E+02   2.162939E+02   2.162939E+02   1.261421E+02   1.261421E+02   1.261421E+02   1.261421E+02   1.261421E+02   1.261421E+02   1.261421E+02   1.048691E+02   1.048691E+02   1.048691E+02   1.048691E+02   1.048691E+02   1.155393E+02   1.155393E+02   1.155393E+02   1.155393E+02   4.169798E+01   4.169798E+01   4.169798E+01   6.484608E+01   6.484608E+01   8.755858E+01   8.755858E+01   2.624817E+01   2.624817E+01   9.760212E+00   6.964256E+00   2.104332E+01   2.104332E+01   6.649655E+01   8.971316E+01   2.615990E+02   8.981438E+01   5.447165E+01   5.812557E+01   8.132555E+01   8.006848E+01   3.190949E+01   1.816149E+01   3.056082E+01   1.733193E+01   2.085315E+01   5.869756E+01   2.461621E+01   3.610962E+01   2.220734E+01   6.252386E+01   2.382916E+01   3.447696E+01   8.170842E+00   1.265413E+01   2.938564E+01   5.584958E+01   1.107081E+02   6.952006E+01   1.943624E+01   3.192834E+01   1.596281E+01   2.189338E+01   3.412502E+01   8.870438E+00   9.971692E+00   3.670369E+01   1.976526E+01   3.560682E+01   3.215068E+01   5.228748E+01   8.503323E+01
   1.705584E+01   4.535664E+01   2.811804E+02   3.552631E+02   2.217745E+02   5.315473E+01   8.669862E+01   1.980766E+02   9.395879E+01   6.878967E+01   2.668653E+01   3.298727E+01   3.194904E+01   2.545399E+01   8.668718E+01   3.490527E+02   1.872450E+02   7.615398E+01   3.121809E+01   3.520105E+01   4.411356E+01   5.625861E+01   2.229190E+01   1.685551E+01   7.496738E+01   9.671226E+01   6.612637E+01   6.693600E+01   3.718741E+01   7.430499E+01   4.158251E+01   2.097997E+01   1.845850E+01   7.882477E+01   8.307362E+01   2.660503E+01   1.264068E+01   3.444736E+01   5.986903E+01   8.172811E+01   9.234655E+01   1.058812E+02   5.757449E+01   5.238747E+01   4.856051E+01   2.808033E+01   8.515723E+01   2.052720E+02   7.432279E+01   7.425761E+01   8.085348E+01   5.146428E+01   2.212601E+02   2.569287E+02   9.954290E+01   9.248056E+01   7.610766E+01   1.018751E+02   5.613174E+01   2.973462E+01   3.608845E+01   3.566074E+01   2.416686E+01   5.487411E+01   5.190811E+01   4.667597E+01   2.485930E+02   3.194605E+01   5.390384E+01   2.048742E+01   2.615117E+01   3.964952E+01   3.812268E+01   2.363227E+01   7.233710E+01   6.889285E+01   1.264334E+02   6.656421E+01   9.444949E+01   1.003501E+02   3.139572E+01   1.178099E+01   2.066938E+01   1.773622E+01   1.289337E+02   5.757720E+01   6.338733E+01   7.315936E+01   5.533086E+01   5.582822E+01   5.582822E+01   5.318563E+01   3.169378E+01   3.169378E+01   1.816062E+01   4.959513E+01   4.959513E+01   8.345861E+00   8.345861E+00   8.345861E+00   1.131737E+01   1.131737E+01   1.131737E+01   3.294759E+01   3.294759E+01   3.294759E+01   3.294759E+01   3.294759E+01   4.028281E+01   4.028281E+01   4.028281E+01   4.028281E+01   4.028281E+01   8.926983E+01   8.926983E+01   8.926983E+01   8.926983E+01   8.926983E+01   8.926983E+01   8.926983E+01   1.559135E+02   1.559135E+02   1.559135E+02   1.559135E+02   1.559135E+02   1.559135E+02   1.559135E+02   1.559135E+02   1.559135E+02   1.559135E+02   1.492039E+02   1.492039E+02   1.492039E+02   1.492039E+02   1.492039E+02   1.492039E+02   1.492039E+02   1.492039E+02   1.492039E+02   8.894468E+01   8.894468E+01   8.894468E+01   8.894468E+01   8.894468E+01   8.894468E+01   8.894468E+01   5.506432E+01   5.506432E+01   5.506432E+01   5.506432E+01   5.506432E+01   7.292029E+01   7.292029E+01   7.292029E+01   7.292029E+01   3.002509E+01   3.002509E+01   3.002509E+01   3.635471E+01   3.635471E+01   5.853743E+01   5.853743E+01   3.807535E+01   3.807535E+01   1.170832E+01   1.705156E+01   5.321686E+01   5.321686E+01   1.040554E+02   1.566912E+02   1.456405E+02   8.515082E+01   1.407222E+02   7.219219E+01   5.241724E+01   4.470616E+01   4.794334E+01   2.568807E+01   4.448890E+01   2.276434E+01   2.573153E+01   4.738331E+01   1.964949E+01   2.870394E+01   2.015321E+01   4.815336E+01   3.042277E+01   1.645329E+01   3.026355E+01   2.048421E+01   2.992335E+01   4.193690E+01   1.070466E+02   6.541602E+01   3.491894E+01   4.255683E+01   1.882267E+01   2.734125E+01   3.225491E+01   1.008794E+01   1.517441E+01   2.635992E+01   2.776161E+01   3.503233E+01   2.792748E+01   3.896354E+01   9.369778E+01
   1.183735E+01   4.978030E+01   1.304874E+02   4.827853E+02   2.458961E+02   8.407999E+01   3.788145E+01   2.408571E+02   1.370248E+02   1.153875E+02   6.487885E+01   2.513011E+01   1.470438E+01   1.738510E+01   1.223700E+02   2.932111E+02   2.299059E+02   1.297169E+02   3.890853E+01   5.890662E+01   2.093138E+01   6.976497E+01   1.970063E+01   3.294672E+01   5.359255E+01   1.140592E+02   1.014233E+02   6.926872E+01   4.457571E+01   5.521046E+01   3.532122E+01   4.402197E+01   1.098203E+01   2.947785E+01   3.273216E+01   1.442812E+01   2.068801E+01   2.205351E+01   4.269512E+01   4.933994E+01   1.334756E+02   9.401460E+01   6.709342E+01   5.577813E+01   5.206487E+01   3.831163E+01   6.271192E+01   1.349705E+02   8.362597E+01   1.001424E+02   4.921623E+01   6.332984E+01   1.678514E+02   1.494703E+02   1.132394E+02   1.812113E+02   1.639472E+02   1.622442E+02   5.758866E+01   3.372570E+01   2.664642E+01   1.241221E+01   1.540188E+01   3.354040E+01   3.522640E+01   4.150453E+01   9.863869E+01   5.038157E+01   3.779154E+01   2.051981E+01   1.216109E+01   3.063781E+01   4.534460E+01   9.525571E+01   8.289337E+01   4.561224E+01   9.977120E+01   8.868216E+01   1.226605E+02   1.388021E+02   3.055994E+01   8.980705E+00   3.211222E+01   2.517540E+01   5.872309E+01   6.719398E+01   3.944158E+01   7.973731E+01   4.804123E+01   7.542468E+01   7.542468E+01   1.193338E+02   5.167718E+01   5.167718E+01   2.098411E+01   3.129745E+01   3.129745E+01   7.890213E+00   7.890213E+00   7.890213E+00   1.058270E+01   1.058270E+01   1.058270E+01   5.460694E+01   5.460694E+01   5.460694E+01   5.460694E+01   5.460694E+01   4.472800E+01   4.472800E+01   4.472800E+01   4.472800E+01   4.472800E+01   4.014100E+01   4.014100E+01   4.014100E+01   4.014100E+01   4.014100E+01   4.014100E+01   4.014100E+01   3.611646E+01   3.611646E+01   3.611646E+01   3.611646E+01   3.611646E+01   3.611646E+01   3.611646E+01   3.611646E+01   3.611646E+01   3.611646E+01   7.391548E+01   7.391548E+01   7.391548E+01   7.391548E+01   7.391548E+01   7.391548E+01   7.391548E+01   7.391548E+01   7.391548E+01   6.906547E+01   6.906547E+01   6.906547E+01   6.906547E+01   6.906547E+01   6.906547E+01   6.906547E+01   7.501434E+01   7.501434E+01   7.501434E+01   7.501434E+01   7.501434E+01   5.365422E+01   5.365422E+01   5.365422E+01   5.365422E+01   6.362640E+01   6.362640E+01   6.362640E+01   3.269488E+01   3.269488E+01   4.355941E+01   4.355941E+01   3.443884E+01   3.443884E+01   9.348445E+00   1.795183E+01   1.980992E+01   1.980992E+01   4.662123E+01   1.167002E+02   5.859286E+01   1.653986E+02   1.915248E+02   4.965059E+01   3.522474E+01   5.386314E+01   5.451595E+01   3.030090E+01   4.400356E+01   3.164809E+01   2.482098E+01   3.213494E+01   3.320304E+01   3.298615E+01   2.585994E+01   4.391755E+01   2.305224E+01   2.301132E+01   3.809446E+01   2.636705E+01   2.649901E+01   4.985025E+01   5.585036E+01   5.874288E+01   4.102573E+01   5.730558E+01   3.601958E+01   2.886187E+01   3.566623E+01   3.865384E+01   2.596601E+01   3.200544E+01   3.388228E+01   3.790212E+01   2.925069E+01   2.629593E+01   5.901874E+01
   1.113220E+01   5.579750E+01   1.136069E+02   2.545408E+02   2.397412E+02   1.733358E+02   5.067027E+01   1.377540E+02   8.070541E+01   5.382086E+01   1.179636E+02   4.004670E+01   2.887431E+01   2.973272E+01   8.514931E+01   2.925312E+02   2.277122E+02   1.532873E+02   1.226305E+02   1.454736E+02   3.062980E+01   1.314176E+02   2.871622E+01   4.208145E+01   7.119383E+01   8.760885E+01   2.044511E+02   1.242254E+02   4.373051E+01   5.881395E+01   2.790140E+01   3.233531E+01   9.347743E+00   2.507457E+01   1.869134E+01   2.055153E+01   1.171650E+01   1.132792E+01   1.706730E+01   1.488662E+01   1.284589E+02   1.366890E+02   7.395268E+01   5.338680E+01   1.435571E+01   2.101788E+01   4.991817E+01   9.620081E+01   8.344213E+01   1.267381E+02   4.004385E+01   7.477892E+01   9.443848E+01   7.838837E+01   8.022156E+01   1.027928E+02   4.549705E+01   5.822105E+01   5.879764E+01   2.350535E+01   1.033939E+01   1.498643E+01   1.465519E+01   1.821787E+01   2.697613E+01   3.664392E+01   6.454764E+01   4.764093E+01   3.191585E+01   2.629532E+01   2.469852E+01   3.118491E+01   8.181380E+01   4.834373E+01   1.219669E+02   6.780325E+01   5.108892E+01   6.554897E+01   9.058269E+01   5.005259E+01   1.741291E+01   1.763206E+01   3.488865E+01   1.692142E+01   3.761604E+01   2.421689E+01   4.381303E+01   2.846154E+01   5.551960E+01   8.226545E+01   8.226545E+01   1.406554E+02   4.701606E+01   4.701606E+01   2.390544E+01   3.125679E+01   3.125679E+01   8.625433E+00   8.625433E+00   8.625433E+00   2.729966E+01   2.729966E+01   2.729966E+01   3.549011E+01   3.549011E+01   3.549011E+01   3.549011E+01   3.549011E+01   2.781179E+01   2.781179E+01   2.781179E+01   2.781179E+01   2.781179E+01   7.548225E+01   7.548225E+01   7.548225E+01   7.548225E+01   7.548225E+01   7.548225E+01   7.548225E+01   1.000312E+02   1.000312E+02   1.000312E+02   1.000312E+02   1.000312E+02   1.000312E+02   1.000312E+02   1.000312E+02   1.000312E+02   1.000312E+02   1.407377E+02   1.407377E+02   1.407377E+02   1.407377E+02   1.407377E+02   1.407377E+02   1.407377E+02   1.407377E+02   1.407377E+02   5.475511E+01   5.475511E+01   5.475511E+01   5.475511E+01   5.475511E+01   5.475511E+01   5.475511E+01   7.370885E+01   7.370885E+01   7.370885E+01   7.370885E+01   7.370885E+01   3.529530E+01   3.529530E+01   3.529530E+01   3.529530E+01   3.971610E+01   3.971610E+01   3.971610E+01   1.924058E+01   1.924058E+01   1.349794E+01   1.349794E+01   1.215592E+01   1.215592E+01   1.074995E+01   6.237135E+00   9.691297E+00   9.691297E+00   6.540807E+01   1.178095E+02   9.690325E+01   1.833905E+02   1.361638E+02   1.233155E+02   3.914100E+01   1.032076E+02   6.438712E+01   3.938638E+01   4.141357E+01   2.369435E+01   3.209731E+01   1.928003E+01   2.257744E+01   3.963838E+01   3.054963E+01   5.256826E+01   1.355179E+01   3.308283E+01   2.828106E+01   5.494710E+01   1.915117E+01   3.098104E+01   3.020017E+01   8.029272E+01   4.255623E+01   4.649282E+01   1.869095E+01   5.414700E+01   4.133684E+01   5.795512E+01   3.478027E+01   3.711301E+01   2.390332E+01   1.514442E+01   5.011827E+01   1.906653E+01   7.356648E+01
   1.429052E+01   1.215085E+02   2.306910E+02   2.048084E+02   1.420076E+02   1.049705E+02   6.932802E+01   1.131442E+02   1.077232E+02   1.011015E+02   8.682116E+01   6.499712E+01   3.021911E+01   1.618176E+01   1.401491E+02   2.806552E+02   7.591553E+02   4.716452E+02   2.090045E+02   1.712063E+02   9.623424E+01   4.353158E+01   5.170968E+01   5.137321E+01   1.351233E+02   1.540079E+02   1.843957E+02   1.219159E+02   6.340998E+01   3.803535E+01   2.569762E+01   3.102296E+01   2.247666E+01   3.367967E+01   1.848645E+01   1.786333E+01   7.223833E+00   1.059772E+01   2.437719E+01   4.432874E+01   1.100042E+02   1.628568E+02   1.663967E+02   9.621862E+01   2.394036E+01   1.478099E+01   4.920459E+01   6.794865E+01   2.928375E+01   5.353706E+01   4.115777E+01   1.569097E+02   1.172837E+02   6.115720E+01   1.084299E+02   3.680602E+01   4.054346E+01   1.306067E+02   5.949739E+01   2.672903E+01   1.783600E+01   1.694551E+01   2.800533E+01   1.335299E+01   3.007026E+01   2.615483E+01   5.206352E+01   4.491093E+01   4.531423E+01   3.497654E+01   4.960786E+01   7.389127E+01   8.204391E+01   4.219251E+01   5.242575E+01   7.123868E+01   3.526220E+01   7.467377E+01   8.038329E+01   8.233081E+01   4.820440E+01   2.801878E+01   5.199393E+01   3.870541E+01   2.824533E+01   2.130635E+01   2.046614E+01   3.608603E+01   6.279632E+01   6.939774E+01   6.939774E+01   5.720217E+01   3.380569E+01   3.380569E+01   3.945212E+01   3.258566E+01   3.258566E+01   2.092627E+01   2.092627E+01   2.092627E+01   4.099009E+01   4.099009E+01   4.099009E+01   5.531553E+01   5.531553E+01   5.531553E+01   5.531553E+01   5.531553E+01   1.110702E+02   1.110702E+02   1.110702E+02   1.110702E+02   1.110702E+02   1.022762E+02   1.022762E+02   1.022762E+02   1.022762E+02   1.022762E+02   1.022762E+02   1.022762E+02   8.212640E+01   8.212640E+01   8.212640E+01   8.212640E+01   8.212640E+01   8.212640E+01   8.212640E+01   8.212640E+01   8.212640E+01   8.212640E+01   9.085056E+01   9.085056E+01   9.085056E+01   9.085056E+01   9.085056E+01   9.085056E+01   9.085056E+01   9.085056E+01   9.085056E+01   3.838401E+01   3.838401E+01   3.838401E+01   3.838401E+01   3.838401E+01   3.838401E+01   3.838401E+01   7.371513E+01   7.371513E+01   7.371513E+01   7.371513E+01   7.371513E+01   3.573837E+01   3.573837E+01   3.573837E+01   3.573837E+01   4.176513E+01   4.176513E+01   4.176513E+01   8.357080E+00   8.357080E+00   1.113161E+01   1.113161E+01   2.088115E+01   2.088115E+01   1.046202E+01   1.717475E+01   6.829465E+00   6.829465E+00   4.347039E+01   1.457802E+02   1.092434E+02   1.810114E+02   1.000451E+02   1.001180E+02   4.338706E+01   1.054741E+02   6.438381E+01   4.906596E+01   4.449530E+01   2.426771E+01   5.252823E+01   4.631918E+01   6.636123E+01   8.678902E+01   6.463866E+01   2.011499E+01   1.024717E+01   5.191584E+01   1.498561E+01   1.748982E+01   1.034866E+01   3.696677E+01   2.611949E+01   5.670630E+01   3.136264E+01   3.616954E+01   4.926129E+01   1.292277E+02   7.560956E+01   9.450312E+01   3.737786E+01   6.640672E+01   3.205397E+01   1.666612E+01   2.636995E+01   2.701208E+01   9.598617E+01
   4.095110E+01   1.054914E+02   2.452655E+02   1.881142E+02   1.353065E+02   7.222978E+01   1.092032E+02   1.155997E+02   1.147854E+02   7.919718E+01   8.713722E+01   7.484457E+01   1.917764E+01   1.909756E+01   8.359916E+01   1.841929E+02   4.649357E+02   3.469214E+02   2.525476E+02   3.446551E+02   1.181833E+02   4.855963E+01   6.178447E+01   3.347523E+01   6.095871E+01   5.925124E+01   8.582798E+01   4.124066E+01   8.793110E+01   3.221506E+01   3.520058E+01   7.673088E+01   2.087180E+01   2.245944E+01   1.572161E+01   1.225838E+01   1.049713E+01   1.033485E+01   2.277513E+01   3.752443E+01   6.309231E+01   6.488002E+01   1.550280E+02   8.015491E+01   7.114699E+01   4.362743E+01   7.646981E+01   7.954967E+01   3.344513E+01   2.557257E+01   4.570254E+01   7.715839E+01   7.254134E+01   5.501091E+01   6.032856E+01   6.333814E+01   4.860644E+01   1.036434E+02   7.593031E+01   5.120829E+01   3.022123E+01   2.938278E+01   2.179833E+01   1.246397E+01   8.902072E+00   1.393637E+01   2.793194E+01   2.747487E+01   4.814741E+01   5.779514E+01   8.570393E+01   1.632807E+02   4.760048E+01   2.262931E+01   6.092649E+01   8.995428E+01   7.323460E+01   1.151679E+02   1.627768E+02   9.565456E+01   3.519091E+01   2.650309E+01   6.180329E+01   2.525148E+01   1.902256E+01   1.227426E+01   2.013959E+01   3.603163E+01   4.880371E+01   2.874359E+01   2.874359E+01   8.059401E+01   8.844244E+01   8.844244E+01   1.417905E+02   4.581187E+01   4.581187E+01   2.414938E+01   2.414938E+01   2.414938E+01   7.466749E+01   7.466749E+01   7.466749E+01   1.319818E+02   1.319818E+02   1.319818E+02   1.319818E+02   1.319818E+02   1.295736E+02   1.295736E+02   1.295736E+02   1.295736E+02   1.295736E+02   2.356610E+02   2.356610E+02   2.356610E+02   2.356610E+02   2.356610E+02   2.356610E+02   2.356610E+02   1.491467E+02   1.491467E+02   1.491467E+02   1.491467E+02   1.491467E+02   1.491467E+02   1.491467E+02   1.491467E+02   1.491467E+02   1.491467E+02   9.532121E+01   9.532121E+01   9.532121E+01   9.532121E+01   9.532121E+01   9.532121E+01   9.532121E+01   9.532121E+01   9.532121E+01   1.550817E+02   1.550817E+02   1.550817E+02   1.550817E+02   1.550817E+02   1.550817E+02   1.550817E+02   9.995576E+01   9.995576E+01   9.995576E+01   9.995576E+01   9.995576E+01   3.200532E+01   3.200532E+01   3.200532E+01   3.200532E+01   3.056834E+01   3.056834E+01   3.056834E+01   1.920821E+01   1.920821E+01   2.048715E+01   2.048715E+01   2.913912E+01   2.913912E+01   1.100192E+01   2.441468E+01   1.297071E+01   1.297071E+01   3.101886E+01   4.341626E+01   1.603959E+02   2.338200E+02   2.533601E+02   1.381833E+02   6.257864E+01   1.122134E+02   7.883253E+01   1.192001E+02   5.786548E+01   3.959212E+01   3.895442E+01   6.128663E+01   8.572015E+01   8.562717E+01   7.148572E+01   2.519553E+01   5.240226E+00   3.262722E+01   1.645787E+01   2.459461E+01   2.915533E+01   2.107142E+01   2.137792E+01   8.152916E+00   2.664797E+01   2.946149E+01   4.527141E+01   2.731493E+02   1.048937E+02   1.355461E+02   2.875511E+01   5.397681E+01   4.362704E+01   3.593134E+01   4.967134E+01   3.280331E+01   1.941254E+02
   5.992277E+01   1.676935E+02   2.959128E+02   3.302136E+02   1.533433E+02   9.973660E+01   1.312208E+02   1.582413E+02   1.539493E+02   8.633395E+01   9.377329E+01   1.640803E+02   3.584607E+01   8.766068E+00   4.328558E+01   2.397809E+02   2.475844E+02   2.301026E+02   5.384177E+02   1.909538E+02   1.472222E+02   1.170344E+02   4.813223E+01   6.853964E+01   4.364565E+01   5.440643E+01   7.076446E+01   7.590714E+01   1.151491E+02   4.948175E+01   2.983010E+01   6.153880E+01   5.137848E+01   2.346757E+01   1.369290E+01   1.178329E+01   7.905500E+00   1.802488E+01   4.414356E+01   4.048784E+01   4.441479E+01   1.059631E+02   1.292842E+02   1.063430E+02   8.968553E+01   5.947454E+01   4.649488E+01   3.601680E+01   3.121582E+01   2.501273E+01   2.738830E+01   6.050230E+01   8.505399E+01   7.762807E+01   6.531726E+01   5.518018E+01   4.961971E+01   5.699899E+01   5.789289E+01   6.052738E+01   1.619548E+01   2.811111E+01   1.884107E+01   9.934536E+00   6.005193E+00   7.061596E+00   1.411141E+01   1.193437E+01   5.481666E+01   5.707076E+01   8.730303E+01   1.128516E+02   7.585973E+01   3.289293E+01   8.469344E+01   5.245362E+01   7.320644E+01   2.202600E+02   3.135685E+02   9.293617E+01   6.577328E+01   4.810317E+01   4.799378E+01   2.336943E+01   2.578352E+01   1.781082E+01   3.167538E+01   1.910782E+01   2.675641E+01   4.888671E+01   4.888671E+01   5.677835E+01   7.579793E+01   7.579793E+01   1.970657E+02   7.011111E+01   7.011111E+01   5.620098E+01   5.620098E+01   5.620098E+01   1.004850E+02   1.004850E+02   1.004850E+02   2.224728E+02   2.224728E+02   2.224728E+02   2.224728E+02   2.224728E+02   1.799496E+02   1.799496E+02   1.799496E+02   1.799496E+02   1.799496E+02   1.732195E+02   1.732195E+02   1.732195E+02   1.732195E+02   1.732195E+02   1.732195E+02   1.732195E+02   2.124086E+02   2.124086E+02   2.124086E+02   2.124086E+02   2.124086E+02   2.124086E+02   2.124086E+02   2.124086E+02   2.124086E+02   2.124086E+02   6.298050E+01   6.298050E+01   6.298050E+01   6.298050E+01   6.298050E+01   6.298050E+01   6.298050E+01   6.298050E+01   6.298050E+01   1.026312E+02   1.026312E+02   1.026312E+02   1.026312E+02   1.026312E+02   1.026312E+02   1.026312E+02   8.353522E+01   8.353522E+01   8.353522E+01   8.353522E+01   8.353522E+01   3.647169E+01   3.647169E+01   3.647169E+01   3.647169E+01   6.631738E+01   6.631738E+01   6.631738E+01   3.400021E+01   3.400021E+01   2.511584E+01   2.511584E+01   4.074393E+01   4.074393E+01   1.735620E+01   1.488582E+01   1.326385E+01   1.326385E+01   2.585408E+01   6.661155E+01   2.006947E+02   6.148222E+01   1.864188E+02   1.254708E+02   1.164171E+02   8.590051E+01   6.148658E+01   5.393140E+01   6.884377E+01   4.120342E+01   3.587299E+01   7.238013E+01   1.889781E+02   1.928868E+02   9.499377E+01   5.679437E+01   1.845022E+01   3.062145E+01   3.499980E+01   1.430223E+01   1.000843E+01   1.971345E+01   8.801676E+00   3.034115E+00   6.412158E+00   1.687388E+01   2.054371E+01   2.221272E+02   2.019799E+02   9.601846E+01   6.502591E+01   4.622422E+01   2.497753E+01   2.037659E+01   5.967309E+01   2.562360E+01   5.557168E+01
   1.286757E+02   1.294946E+02   1.754112E+02   2.603736E+02   1.797678E+02   1.789349E+02   9.369249E+01   1.788037E+02   1.700869E+02   2.635432E+02   4.245541E+01   1.189289E+02   2.988460E+01   1.385676E+01   2.544643E+01   1.676856E+02   1.683278E+02   1.594634E+02   3.751963E+02   4.813918E+02   2.427480E+02   2.087006E+02   8.572895E+01   8.694509E+01   1.019003E+02   7.244122E+01   1.118123E+02   9.302835E+01   5.082023E+02   9.273016E+01   4.394646E+01   3.367458E+01   7.163908E+01   3.543086E+01   1.897951E+01   5.013137E+00   1.104398E+01   3.803307E+01   3.273015E+01   5.061734E+01   9.934467E+01   1.073265E+02   1.045954E+02   1.197589E+02   9.299399E+01   5.728299E+01   6.006297E+01   4.878542E+01   3.118960E+01   2.710708E+01   1.303823E+01   4.961701E+01   1.104970E+02   4.871774E+01   6.160986E+01   7.476803E+01   1.052919E+02   1.294239E+02   5.060554E+01   2.674096E+01   1.078413E+01   1.456902E+01   1.613504E+01   1.540557E+01   4.281872E+00   5.294285E+00   1.597097E+01   1.185214E+01   2.633643E+01   5.499026E+01   5.202580E+01   8.162592E+01   8.317923E+01   9.270692E+01   1.036449E+02   4.795036E+01   1.185236E+02   2.002081E+02   5.420223E+02   1.301409E+02   9.443220E+01   5.111720E+01   2.486295E+01   3.114590E+01   3.874628E+01   1.142466E+01   1.887879E+01   2.120929E+01   3.377495E+01   3.168857E+01   3.168857E+01   3.422537E+01   3.546759E+01   3.546759E+01   2.088469E+02   7.858428E+01   7.858428E+01   1.029683E+02   1.029683E+02   1.029683E+02   1.143432E+02   1.143432E+02   1.143432E+02   2.185291E+02   2.185291E+02   2.185291E+02   2.185291E+02   2.185291E+02   1.363723E+02   1.363723E+02   1.363723E+02   1.363723E+02   1.363723E+02   1.547504E+02   1.547504E+02   1.547504E+02   1.547504E+02   1.547504E+02   1.547504E+02   1.547504E+02   8.691257E+01   8.691257E+01   8.691257E+01   8.691257E+01   8.691257E+01   8.691257E+01   8.691257E+01   8.691257E+01   8.691257E+01   8.691257E+01   7.855377E+01   7.855377E+01   7.855377E+01   7.855377E+01   7.855377E+01   7.855377E+01   7.855377E+01   7.855377E+01   7.855377E+01   5.022301E+01   5.022301E+01   5.022301E+01   5.022301E+01   5.022301E+01   5.022301E+01   5.022301E+01   5.222248E+01   5.222248E+01   5.222248E+01   5.222248E+01   5.222248E+01   8.655940E+01   8.655940E+01   8.655940E+01   8.655940E+01   4.648006E+01   4.648006E+01   4.648006E+01   3.457252E+01   3.457252E+01   5.273359E+01   5.273359E+01   7.032284E+01   7.032284E+01   2.615293E+01   1.932333E+01   1.357829E+01   1.357829E+01   2.398197E+01   6.981663E+01   7.922607E+01   2.172071E+01   1.128735E+02   1.592339E+02   8.678944E+01   4.388983E+01   1.640247E+02   3.348246E+01   8.308958E+01   3.018620E+01   5.508585E+01   6.681877E+01   1.754909E+02   1.369149E+02   8.223453E+01   3.435468E+01   1.881722E+01   4.875970E+01   3.926194E+01   1.986866E+01   1.887957E+01   1.283963E+01   7.875043E+00   4.605586E+00   4.085965E+00   1.307379E+01   5.850493E+01   3.500670E+02   3.731785E+02   8.090266E+01   3.091006E+01   2.035186E+01   1.590641E+01   1.866809E+01   2.527640E+01   2.012179E+01   2.081645E+01