# LPF package for  MODFLOW-2005, generated by Flopy.
        53    -1E+30         0  
         1
         0
   0.000000E+00
         0
         0
INTERNAL               1 (207E15.6) -1 #hk layer 1                    
   1.681833E-01   4.466770E-01   2.834437E-01   1.840786E-01   1.693892E-01   3.995316E-02   1.383731E-02   2.460855E-02   4.446658E-02   3.718416E-02   5.255623E-02   3.739559E-02   1.603628E-02   2.048505E-02   9.298302E-02   5.364135E-02   5.963673E-02   7.573370E-02   1.010353E-01   1.135665E-01   7.881926E-02   4.235138E-02   4.436899E-02   6.148556E-02   4.578929E-02   2.658990E-02   3.710757E-02   1.073059E-01   1.065160E-01   6.974411E-02   9.458882E-02   4.559838E-02   3.291913E-02   9.867548E-02   5.828547E-02   8.227539E-02   7.824187E-02   4.882049E-02   3.735309E-02   5.009159E-02   6.081575E-02   6.685756E-02   4.345332E-02   5.770045E-02   3.543170E-02   6.624912E-02   2.767214E-02   2.662116E-02   1.518056E-02   1.319881E-02   2.229204E-02   1.187161E-01   6.133055E-02   1.146571E-01   2.472237E-02   3.449647E-02   2.774960E-02   6.583086E-02   3.038048E-01   4.195316E-01   1.966079E-01   7.593278E-02   8.411593E-02   6.529415E-02   1.937296E-01   1.361634E-01   5.669617E-02   2.413419E-02   2.424294E-02   6.074494E-02   6.993921E-02   3.286922E-02   3.507895E-02   1.427053E-01   3.560356E-02   4.369688E-02   3.567011E-02   5.382220E-02   4.784273E-02   8.131188E-02   1.250402E-01   1.602951E-01   4.921823E-02   4.725422E-02   3.820003E-02   2.984432E-02   6.094045E-02   5.819788E-02   1.489501E-01   6.205060E-02   6.205060E-02   1.406446E-01   2.342549E-01   2.342549E-01   1.415395E-01   1.120260E-01   1.120260E-01   1.777362E-01   1.777362E-01   1.777362E-01   6.940579E-02   6.940579E-02   6.940579E-02   1.664594E-01   1.664594E-01   1.664594E-01   1.664594E-01   1.664594E-01   1.634554E-01   1.634554E-01   1.634554E-01   1.634554E-01   1.634554E-01   1.109062E-01   1.109062E-01   1.109062E-01   1.109062E-01   1.109062E-01   1.109062E-01   1.109062E-01   1.415234E-01   1.415234E-01   1.415234E-01   1.415234E-01   1.415234E-01   1.415234E-01   1.415234E-01   1.415234E-01   1.415234E-01   1.415234E-01   9.037057E-02   9.037057E-02   9.037057E-02   9.037057E-02   9.037057E-02   9.037057E-02   9.037057E-02   9.037057E-02   9.037057E-02   1.446958E-01   1.446958E-01   1.446958E-01   1.446958E-01   1.446958E-01   1.446958E-01   1.446958E-01   1.562823E-01   1.562823E-01   1.562823E-01   1.562823E-01   1.562823E-01   6.284482E-02   6.284482E-02   6.284482E-02   6.284482E-02   8.064407E-02   8.064407E-02   8.064407E-02   1.173675E-01   1.173675E-01   4.594656E-02   4.594656E-02   7.849032E-02   7.849032E-02   2.343398E-01   1.863504E-01   1.061073E-01   1.061073E-01   1.150463E-01   6.724952E-02   2.923905E-01   1.989613E-01   1.151271E-01   1.411332E-01   1.549076E-01   1.036858E-01   1.230978E-01   8.975594E-02   6.138487E-02   2.885493E-02   3.281465E-02   4.814706E-02   6.917427E-02   7.159627E-02   6.638134E-02   2.291547E-02   2.900050E-02   2.196243E-02   5.871117E-02   1.515185E-01   2.889760E-01   1.804392E-01   7.139404E-02   1.854158E-02   2.886607E-02   1.003567E-01   7.906261E-02   8.799140E-02   1.277709E-01   5.473133E-02   4.823288E-02   8.115361E-02   3.191609E-02   7.547463E-02   5.126200E-02   3.688888E-02   5.661709E-02
   1.236621E-01   2.084073E-01   4.106483E-01   2.244734E-01   6.526259E-02   5.844061E-02   3.939334E-02   5.055322E-02   3.686946E-02   3.832981E-02   4.237710E-02   2.820829E-02   1.502837E-02   1.064794E-02   1.054367E-01   5.869133E-02   4.479200E-02   5.960490E-02   7.480748E-02   6.751647E-02   6.299179E-02   3.357250E-02   2.219110E-02   5.361944E-02   4.041629E-02   4.057479E-02   8.399822E-02   1.978255E-01   7.282078E-02   1.076057E-01   4.747822E-02   5.840897E-02   3.360564E-02   9.140304E-02   1.222388E-01   1.219701E-01   7.701110E-02   8.537203E-02   3.893670E-02   1.923266E-02   9.377023E-02   5.439417E-02   4.389312E-02   7.252670E-02   3.025867E-02   7.107858E-02   1.835024E-02   1.496037E-02   1.752315E-02   1.115706E-02   1.597624E-02   7.140237E-02   5.136483E-02   1.413040E-01   5.273339E-02   5.136285E-02   5.477256E-02   9.315157E-02   2.048436E-01   5.798755E-01   6.773562E-01   2.018623E-01   1.437352E-01   1.529498E-01   1.471106E-01   1.057635E-01   6.825127E-02   4.211199E-02   4.626379E-02   3.674977E-02   3.436098E-02   3.518802E-02   5.007933E-02   1.131276E-01   9.924484E-02   5.351283E-02   4.265628E-02   4.991765E-02   6.090371E-02   6.142047E-02   1.019224E-01   5.465506E-02   5.966666E-02   4.895402E-02   2.604916E-02   3.969396E-02   3.327619E-02   4.746283E-02   1.156325E-01   1.082301E-01   1.082301E-01   1.574837E-01   1.217751E-01   1.217751E-01   1.695382E-01   5.447829E-02   5.447829E-02   7.347091E-02   7.347091E-02   7.347091E-02   9.895327E-02   9.895327E-02   9.895327E-02   3.615868E-01   3.615868E-01   3.615868E-01   3.615868E-01   3.615868E-01   9.177571E-02   9.177571E-02   9.177571E-02   9.177571E-02   9.177571E-02   1.286438E-01   1.286438E-01   1.286438E-01   1.286438E-01   1.286438E-01   1.286438E-01   1.286438E-01   1.245745E-01   1.245745E-01   1.245745E-01   1.245745E-01   1.245745E-01   1.245745E-01   1.245745E-01   1.245745E-01   1.245745E-01   1.245745E-01   6.253762E-02   6.253762E-02   6.253762E-02   6.253762E-02   6.253762E-02   6.253762E-02   6.253762E-02   6.253762E-02   6.253762E-02   1.411525E-01   1.411525E-01   1.411525E-01   1.411525E-01   1.411525E-01   1.411525E-01   1.411525E-01   1.574227E-01   1.574227E-01   1.574227E-01   1.574227E-01   1.574227E-01   3.955285E-02   3.955285E-02   3.955285E-02   3.955285E-02   1.132140E-01   1.132140E-01   1.132140E-01   7.496592E-02   7.496592E-02   3.476877E-02   3.476877E-02   6.703957E-02   6.703957E-02   2.267690E-01   2.482523E-01   2.338647E-01   2.338647E-01   2.327283E-01   8.922044E-02   3.581834E-01   2.379548E-01   8.679143E-02   1.310040E-01   2.048661E-01   1.263065E-01   1.599401E-01   5.653202E-02   4.011476E-02   1.421548E-02   2.163409E-02   3.878814E-02   3.458457E-02   4.267520E-02   5.620339E-02   1.523844E-02   5.041543E-02   3.490173E-02   5.374947E-02   4.693740E-01   7.371795E-01   2.030265E-01   5.844457E-02   4.215473E-02   4.878707E-02   4.598851E-02   9.492762E-02   9.489891E-02   7.650216E-02   2.387531E-02   5.789711E-02   1.306075E-01   7.964278E-02   4.951599E-02   1.478180E-01   4.599072E-02   7.262618E-02
   1.540902E-01   2.485050E-01   3.241722E-01   2.676188E-01   1.721628E-01   8.422790E-02   4.063683E-02   5.576938E-02   5.209832E-02   3.605419E-02   6.005475E-02   3.643163E-02   2.722080E-02   4.821509E-02   1.100136E-01   4.703002E-02   5.605932E-02   3.892671E-02   1.246757E-01   3.244859E-02   4.423577E-02   2.648492E-02   1.771447E-02   3.416500E-02   2.600517E-02   1.345977E-01   1.539105E-01   1.874871E-01   1.044365E-01   5.289938E-02   2.740165E-02   1.089295E-01   6.514428E-02   9.623467E-02   2.596177E-01   1.009237E-01   8.496532E-02   1.216141E-01   5.640401E-02   3.650019E-02   4.401622E-02   3.100923E-02   5.007190E-02   4.105002E-02   4.319715E-02   5.824932E-02   8.788888E-02   9.844068E-03   2.381816E-02   1.206580E-02   2.108423E-02   3.279473E-02   1.082297E-01   1.059562E-01   6.051681E-02   6.554458E-02   5.602985E-02   1.809444E-01   2.536235E-01   2.126752E-01   6.016335E-01   2.963534E-01   1.446264E-01   1.842503E-01   1.129085E-01   1.341698E-01   7.875428E-02   4.799138E-02   4.447129E-02   4.638394E-02   4.942364E-02   4.687199E-02   7.409064E-02   1.612465E-01   1.498575E-01   4.577589E-02   7.011952E-02   8.035381E-02   4.771426E-02   3.644738E-02   4.557414E-02   4.188676E-02   4.430737E-02   7.882134E-02   4.401805E-02   3.063706E-02   2.936684E-02   4.636035E-02   3.177511E-02   8.044472E-02   8.044472E-02   1.184930E-01   1.219085E-01   1.219085E-01   2.546262E-01   7.974294E-02   7.974294E-02   1.071068E-01   1.071068E-01   1.071068E-01   6.945849E-02   6.945849E-02   6.945849E-02   1.549591E-01   1.549591E-01   1.549591E-01   1.549591E-01   1.549591E-01   8.334503E-02   8.334503E-02   8.334503E-02   8.334503E-02   8.334503E-02   7.696802E-02   7.696802E-02   7.696802E-02   7.696802E-02   7.696802E-02   7.696802E-02   7.696802E-02   9.324680E-02   9.324680E-02   9.324680E-02   9.324680E-02   9.324680E-02   9.324680E-02   9.324680E-02   9.324680E-02   9.324680E-02   9.324680E-02   1.873283E-01   1.873283E-01   1.873283E-01   1.873283E-01   1.873283E-01   1.873283E-01   1.873283E-01   1.873283E-01   1.873283E-01   1.221602E-01   1.221602E-01   1.221602E-01   1.221602E-01   1.221602E-01   1.221602E-01   1.221602E-01   6.803998E-02   6.803998E-02   6.803998E-02   6.803998E-02   6.803998E-02   5.160610E-02   5.160610E-02   5.160610E-02   5.160610E-02   1.059201E-01   1.059201E-01   1.059201E-01   1.503771E-01   1.503771E-01   3.736573E-02   3.736573E-02   7.267304E-02   7.267304E-02   1.964554E-01   1.516787E-01   1.722587E-01   1.722587E-01   7.829778E-02   1.211030E-01   2.006155E-01   2.680812E-01   1.659976E-01   2.470961E-01   1.623534E-01   2.283998E-01   9.553602E-02   3.645735E-02   6.638956E-02   1.156010E-02   1.203563E-02   5.357619E-02   4.018332E-02   3.879041E-02   6.474143E-02   1.829851E-02   3.804111E-02   2.015526E-02   5.792980E-02   1.041103E-01   1.919383E-01   3.994191E-02   5.410682E-02   4.226768E-02   4.186911E-02   7.166670E-02   1.174627E-01   4.734955E-02   3.110684E-02   5.251570E-02   8.303172E-02   1.678008E-01   1.584095E-01   1.063739E-01   1.130831E-01   8.872351E-02   1.440125E-01
   1.038351E-01   2.527910E-01   3.906181E-01   2.109088E-01   2.751217E-01   1.730064E-01   5.831577E-02   5.496711E-02   3.061455E-02   9.541208E-02   1.902241E-01   8.831013E-02   4.207676E-02   6.617893E-02   5.645617E-02   5.600632E-02   2.347142E-02   4.648948E-02   5.733207E-02   3.173639E-02   5.950766E-02   2.459165E-02   1.957458E-02   4.227995E-02   2.315016E-02   5.388473E-02   4.446335E-02   1.463519E-01   1.555045E-01   5.989968E-02   3.376456E-02   5.955262E-02   1.098561E-01   6.485141E-02   1.609563E-01   6.776047E-02   7.293538E-02   9.664774E-02   7.116357E-02   2.491119E-02   5.293510E-02   3.066280E-02   4.789376E-02   8.929490E-02   4.613747E-02   9.095620E-02   9.163078E-02   2.158809E-02   3.989296E-02   2.817229E-02   1.556365E-02   3.101812E-02   9.928346E-02   1.678066E-01   1.053431E-01   8.050239E-02   1.562449E-01   3.432197E-01   3.308440E-01   1.228282E-01   2.529824E-01   2.393650E-01   1.128040E-01   2.237099E-01   1.747419E-01   1.969244E-01   1.704204E-01   7.376449E-02   2.415115E-02   6.021368E-02   6.781052E-02   6.892409E-02   1.174217E-01   2.550451E-01   3.580823E-01   7.513797E-02   5.570947E-02   6.592635E-02   1.271322E-01   4.156111E-02   2.472273E-02   3.954875E-02   3.314152E-02   6.255530E-02   3.836776E-02   8.198524E-02   5.970756E-02   4.542278E-02   4.818576E-02   4.262633E-02   4.262633E-02   3.474023E-02   6.211030E-02   6.211030E-02   1.828729E-01   9.227157E-02   9.227157E-02   1.136481E-01   1.136481E-01   1.136481E-01   1.373429E-01   1.373429E-01   1.373429E-01   8.889216E-02   8.889216E-02   8.889216E-02   8.889216E-02   8.889216E-02   5.302992E-02   5.302992E-02   5.302992E-02   5.302992E-02   5.302992E-02   8.894045E-02   8.894045E-02   8.894045E-02   8.894045E-02   8.894045E-02   8.894045E-02   8.894045E-02   8.746667E-02   8.746667E-02   8.746667E-02   8.746667E-02   8.746667E-02   8.746667E-02   8.746667E-02   8.746667E-02   8.746667E-02   8.746667E-02   5.635212E-02   5.635212E-02   5.635212E-02   5.635212E-02   5.635212E-02   5.635212E-02   5.635212E-02   5.635212E-02   5.635212E-02   3.953075E-02   3.953075E-02   3.953075E-02   3.953075E-02   3.953075E-02   3.953075E-02   3.953075E-02   4.997586E-02   4.997586E-02   4.997586E-02   4.997586E-02   4.997586E-02   5.958406E-02   5.958406E-02   5.958406E-02   5.958406E-02   8.302449E-02   8.302449E-02   8.302449E-02   9.162220E-02   9.162220E-02   8.827148E-02   8.827148E-02   1.744034E-01   1.744034E-01   1.794890E-01   2.338922E-01   1.077634E-01   1.077634E-01   1.658061E-01   1.559244E-01   2.393849E-01   3.387894E-01   1.705244E-01   2.459796E-01   9.533561E-02   9.253766E-02   1.591040E-01   5.824747E-02   5.968741E-02   1.630978E-02   1.774485E-02   3.731602E-02   2.083643E-02   1.782871E-02   3.630145E-02   1.462512E-02   2.788887E-02   1.757737E-02   9.556407E-02   6.876111E-02   4.329531E-02   7.303627E-02   7.646634E-02   8.246109E-02   5.883054E-02   4.663621E-02   4.563842E-02   6.938446E-02   6.725661E-02   1.161247E-01   1.349808E-01   1.567317E-01   2.106071E-01   2.054080E-01   1.140703E-01   1.962233E-01   1.382202E-01
   2.995555E-01   3.276766E-01   2.131289E-01   1.477867E-01   3.776090E-01   2.025082E-01   6.145160E-02   5.255226E-02   5.566261E-02   1.299458E-01   2.898329E-01   8.609308E-02   5.892643E-02   6.963436E-02   5.496019E-02   2.360174E-02   1.875284E-02   4.166620E-02   5.688230E-02   4.180667E-02   2.278212E-02   1.603332E-02   1.499566E-02   2.057599E-02   3.325196E-02   4.045706E-02   9.878847E-02   2.080925E-01   1.964478E-01   8.732383E-02   5.734894E-02   4.543650E-02   7.296152E-02   1.431870E-01   8.656802E-02   4.412165E-02   9.698781E-02   1.129531E-01   1.001268E-01   5.631128E-02   3.820728E-02   4.009667E-02   4.255913E-02   8.260173E-02   8.911849E-02   2.162919E-01   1.362113E-01   6.162544E-02   8.886208E-02   2.641184E-02   2.697311E-02   6.177533E-02   4.118151E-02   7.675098E-02   9.930491E-02   5.872189E-02   4.372165E-02   1.720793E-01   3.120490E-01   2.469149E-01   2.440718E-01   1.734539E-01   2.388665E-01   1.514943E-01   6.339677E-02   1.464842E-01   2.875475E-01   1.363830E-01   4.111150E-02   2.660834E-02   5.041590E-02   5.570429E-02   2.184646E-01   9.517526E-02   2.245588E-01   1.182313E-01   9.356595E-02   3.825880E-02   4.457210E-02   6.003785E-02   1.773138E-02   3.938073E-02   5.529511E-02   6.033669E-02   7.026117E-02   5.584309E-02   5.580061E-02   3.884875E-02   3.064249E-02   5.795955E-02   5.795955E-02   2.960605E-02   4.056402E-02   4.056402E-02   1.599606E-01   5.403129E-02   5.403129E-02   6.154035E-02   6.154035E-02   6.154035E-02   8.838656E-02   8.838656E-02   8.838656E-02   6.117022E-02   6.117022E-02   6.117022E-02   6.117022E-02   6.117022E-02   6.259114E-02   6.259114E-02   6.259114E-02   6.259114E-02   6.259114E-02   1.239046E-01   1.239046E-01   1.239046E-01   1.239046E-01   1.239046E-01   1.239046E-01   1.239046E-01   5.054066E-02   5.054066E-02   5.054066E-02   5.054066E-02   5.054066E-02   5.054066E-02   5.054066E-02   5.054066E-02   5.054066E-02   5.054066E-02   6.864796E-02   6.864796E-02   6.864796E-02   6.864796E-02   6.864796E-02   6.864796E-02   6.864796E-02   6.864796E-02   6.864796E-02   2.012307E-02   2.012307E-02   2.012307E-02   2.012307E-02   2.012307E-02   2.012307E-02   2.012307E-02   3.835325E-02   3.835325E-02   3.835325E-02   3.835325E-02   3.835325E-02   4.692055E-02   4.692055E-02   4.692055E-02   4.692055E-02   6.923531E-02   6.923531E-02   6.923531E-02   3.094197E-02   3.094197E-02   6.306066E-02   6.306066E-02   1.573841E-01   1.573841E-01   2.243894E-01   2.139742E-01   9.304411E-02   9.304411E-02   1.371225E-01   1.234599E-01   2.736859E-01   1.590603E-01   1.125243E-01   1.350523E-01   8.096708E-02   6.614099E-02   4.689454E-02   2.164484E-02   2.561115E-02   1.579614E-02   6.707351E-03   3.953900E-02   3.775855E-02   2.050391E-02   2.107442E-02   2.447786E-02   3.460506E-02   1.307216E-02   2.573400E-02   3.776596E-02   5.215740E-02   1.143975E-01   6.371912E-02   1.046119E-01   7.269060E-02   1.271194E-02   5.215196E-02   3.532526E-02   4.157187E-02   1.462928E-01   1.641555E-01   1.121012E-01   1.214683E-01   1.472040E-01   1.219088E-01   3.361655E-01   1.089256E-01
   1.940248E-01   3.105532E-01   4.452747E-01   1.708105E-01   5.523891E-01   4.795142E-01   7.044584E-02   5.455816E-02   7.243210E-02   1.646118E-01   1.825669E-01   2.362668E-01   9.534460E-02   4.850618E-02   7.247463E-02   4.407656E-02   1.653574E-02   1.328221E-02   1.734495E-02   4.452394E-02   1.447359E-02   1.958985E-02   6.484525E-03   2.242755E-02   6.737124E-02   1.656108E-01   1.945340E-01   1.348815E-01   2.066081E-01   1.398315E-01   8.354855E-02   5.339607E-02   4.464450E-02   6.222904E-02   9.974515E-02   5.927124E-02   6.906404E-02   6.092263E-02   6.614012E-02   2.783206E-02   3.233108E-02   3.243945E-02   2.191958E-02   1.579025E-01   1.724602E-01   3.349316E-01   1.473807E-01   1.062757E-01   7.462426E-02   4.621061E-02   2.154591E-02   1.066028E-01   7.829875E-02   7.021562E-02   7.797906E-02   3.010729E-02   5.527662E-02   2.621640E-01   1.721214E-01   3.529429E-01   2.625874E-01   1.791400E-01   9.847844E-02   8.507970E-02   1.099460E-01   2.000455E-01   1.344318E-01   9.167067E-02   1.823756E-02   2.335277E-02   5.618504E-02   2.440900E-01   3.108392E-01   1.157767E-01   1.319980E-01   1.571341E-01   1.801964E-01   5.119335E-02   4.789173E-02   3.641678E-02   3.163720E-02   2.005862E-02   8.256213E-02   6.230728E-02   7.914668E-02   1.262678E-01   3.097666E-02   2.104908E-02   1.876686E-02   6.876308E-02   6.876308E-02   5.001471E-02   2.825508E-02   2.825508E-02   9.163263E-02   6.263579E-02   6.263579E-02   3.542279E-02   3.542279E-02   3.542279E-02   6.846648E-02   6.846648E-02   6.846648E-02   4.169453E-02   4.169453E-02   4.169453E-02   4.169453E-02   4.169453E-02   1.573763E-01   1.573763E-01   1.573763E-01   1.573763E-01   1.573763E-01   1.267983E-01   1.267983E-01   1.267983E-01   1.267983E-01   1.267983E-01   1.267983E-01   1.267983E-01   3.527698E-02   3.527698E-02   3.527698E-02   3.527698E-02   3.527698E-02   3.527698E-02   3.527698E-02   3.527698E-02   3.527698E-02   3.527698E-02   3.424570E-02   3.424570E-02   3.424570E-02   3.424570E-02   3.424570E-02   3.424570E-02   3.424570E-02   3.424570E-02   3.424570E-02   2.898304E-02   2.898304E-02   2.898304E-02   2.898304E-02   2.898304E-02   2.898304E-02   2.898304E-02   2.824955E-02   2.824955E-02   2.824955E-02   2.824955E-02   2.824955E-02   3.158042E-02   3.158042E-02   3.158042E-02   3.158042E-02   1.607092E-02   1.607092E-02   1.607092E-02   2.755140E-02   2.755140E-02   6.419615E-02   6.419615E-02   1.712683E-01   1.712683E-01   1.088793E-01   1.837683E-01   1.363848E-01   1.363848E-01   1.568653E-01   7.457686E-02   1.844053E-01   2.043887E-01   1.259965E-01   7.111270E-02   1.220314E-01   4.135645E-02   2.723745E-02   1.652331E-02   2.117391E-02   1.163083E-02   1.137897E-02   2.133395E-02   2.670198E-02   2.427407E-02   1.453979E-02   3.821841E-02   4.864828E-02   2.254436E-02   3.277814E-02   2.895007E-02   5.714916E-02   1.405346E-01   7.815652E-02   7.453120E-02   8.227112E-02   2.639011E-02   3.156415E-02   1.597530E-02   1.974368E-02   3.291999E-02   1.143504E-01   1.314763E-01   2.009218E-01   1.838353E-01   1.758947E-01   1.740414E-01   2.219798E-01
   5.192056E-01   2.839348E-01   4.009212E-01   3.428598E-01   1.747504E-01   2.391163E-01   1.312059E-01   9.417989E-02   1.074330E-01   1.867335E-01   1.123077E-01   1.426210E-01   5.737954E-02   8.039935E-02   1.640217E-01   5.411940E-02   1.717731E-02   1.347424E-02   2.060665E-02   2.834871E-02   1.919031E-02   5.650458E-02   3.634607E-03   3.722114E-02   6.926373E-02   1.137130E-01   4.570926E-01   4.568256E-01   2.336161E-01   1.310487E-01   7.694237E-02   4.904813E-02   4.911364E-02   4.124338E-02   4.965633E-02   9.159839E-02   4.681245E-02   2.167768E-02   4.986911E-02   6.700268E-02   3.493682E-02   2.619428E-02   4.429517E-02   1.034670E-01   2.838221E-01   2.639126E-01   1.635390E-01   6.559687E-02   5.487185E-02   7.543648E-02   2.527981E-02   6.618427E-02   4.905145E-02   5.123146E-02   3.855582E-02   2.833533E-02   1.968432E-02   5.469976E-02   2.147499E-01   2.539271E-01   2.131091E-01   1.906663E-01   6.789331E-02   7.336284E-02   1.069654E-01   1.054089E-01   6.030929E-02   3.500924E-02   1.014549E-02   2.059979E-02   1.106817E-01   5.393376E-02   1.157800E-01   1.443538E-01   6.625365E-02   7.122403E-02   7.310762E-02   3.457840E-02   2.864075E-02   1.636729E-02   2.256316E-02   2.826024E-02   6.516659E-02   5.369693E-02   1.231393E-01   6.342825E-02   2.342923E-02   1.189528E-02   1.755694E-02   4.139645E-02   4.139645E-02   5.004309E-02   7.753894E-02   7.753894E-02   1.010439E-01   4.159948E-02   4.159948E-02   3.552246E-02   3.552246E-02   3.552246E-02   7.680575E-02   7.680575E-02   7.680575E-02   9.216058E-02   9.216058E-02   9.216058E-02   9.216058E-02   9.216058E-02   1.264911E-01   1.264911E-01   1.264911E-01   1.264911E-01   1.264911E-01   5.695733E-02   5.695733E-02   5.695733E-02   5.695733E-02   5.695733E-02   5.695733E-02   5.695733E-02   3.192700E-02   3.192700E-02   3.192700E-02   3.192700E-02   3.192700E-02   3.192700E-02   3.192700E-02   3.192700E-02   3.192700E-02   3.192700E-02   1.193174E-02   1.193174E-02   1.193174E-02   1.193174E-02   1.193174E-02   1.193174E-02   1.193174E-02   1.193174E-02   1.193174E-02   4.006435E-02   4.006435E-02   4.006435E-02   4.006435E-02   4.006435E-02   4.006435E-02   4.006435E-02   2.600457E-02   2.600457E-02   2.600457E-02   2.600457E-02   2.600457E-02   1.355436E-02   1.355436E-02   1.355436E-02   1.355436E-02   1.745076E-02   1.745076E-02   1.745076E-02   3.830710E-02   3.830710E-02   3.836023E-02   3.836023E-02   6.832749E-02   6.832749E-02   5.204770E-02   7.125904E-02   1.555416E-01   1.555416E-01   2.512544E-01   9.681263E-02   2.606269E-01   1.087679E-01   1.563783E-01   1.051371E-01   8.897530E-02   4.745827E-02   2.120877E-02   1.826465E-02   2.057451E-02   1.479470E-02   1.938539E-02   1.349952E-02   3.164884E-02   4.151362E-02   4.666174E-02   3.470078E-02   5.293018E-02   3.346583E-02   1.430573E-01   5.920740E-02   1.154232E-01   1.464176E-01   1.457353E-01   1.066858E-01   1.133734E-01   6.874847E-02   6.562315E-02   2.240754E-02   1.537806E-02   3.583415E-02   8.955401E-02   8.212042E-02   1.081992E-01   1.865158E-01   1.918761E-01   3.481145E-01   2.247847E-01
   2.996495E-01   2.557487E-01   3.223333E-01   4.528338E-01   2.875700E-01   2.301557E-01   1.984231E-01   6.051100E-02   8.428063E-02   4.949160E-02   7.938229E-02   6.468101E-02   5.321367E-02   1.710202E-01   1.940948E-01   8.246984E-02   6.816691E-02   6.441317E-02   2.313741E-02   2.883634E-02   2.408163E-02   4.082890E-02   8.720977E-03   3.189597E-02   1.126845E-01   1.514901E-01   6.587816E-01   4.701421E-01   1.664879E-01   6.605455E-02   1.659682E-01   1.190274E-01   3.892450E-02   5.980835E-02   6.530868E-02   2.100460E-01   9.493820E-02   4.715781E-02   6.471192E-02   1.014195E-01   6.180030E-02   5.001721E-02   4.305590E-02   1.618574E-01   4.578022E-01   4.843401E-01   1.089374E-01   1.172528E-01   8.959608E-02   1.772430E-01   8.794963E-02   5.765748E-02   7.091068E-02   7.318433E-02   3.226535E-02   1.525845E-02   1.690950E-02   1.411767E-02   7.203334E-02   9.547170E-02   3.164403E-01   5.202753E-02   1.009252E-01   6.634376E-02   1.291346E-01   8.574565E-02   3.688296E-02   2.852410E-02   1.129023E-02   3.405720E-02   1.087368E-01   3.764390E-02   8.943837E-02   8.008424E-02   7.021867E-02   1.074575E-01   6.516571E-02   4.155984E-02   1.332834E-02   9.862999E-03   1.565028E-02   4.687828E-02   6.747712E-02   5.702719E-02   6.196583E-02   7.704948E-02   4.171833E-02   2.307354E-02   3.746605E-02   3.397406E-02   3.397406E-02   9.365361E-02   1.252657E-01   1.252657E-01   4.612468E-02   3.597188E-02   3.597188E-02   3.112752E-02   3.112752E-02   3.112752E-02   2.930191E-02   2.930191E-02   2.930191E-02   7.819489E-02   7.819489E-02   7.819489E-02   7.819489E-02   7.819489E-02   7.054678E-02   7.054678E-02   7.054678E-02   7.054678E-02   7.054678E-02   4.864730E-02   4.864730E-02   4.864730E-02   4.864730E-02   4.864730E-02   4.864730E-02   4.864730E-02   5.500519E-02   5.500519E-02   5.500519E-02   5.500519E-02   5.500519E-02   5.500519E-02   5.500519E-02   5.500519E-02   5.500519E-02   5.500519E-02   9.552262E-03   9.552262E-03   9.552262E-03   9.552262E-03   9.552262E-03   9.552262E-03   9.552262E-03   9.552262E-03   9.552262E-03   1.889464E-02   1.889464E-02   1.889464E-02   1.889464E-02   1.889464E-02   1.889464E-02   1.889464E-02   1.165903E-02   1.165903E-02   1.165903E-02   1.165903E-02   1.165903E-02   5.406815E-03   5.406815E-03   5.406815E-03   5.406815E-03   1.091214E-02   1.091214E-02   1.091214E-02   4.796663E-02   4.796663E-02   2.599444E-02   2.599444E-02   5.008078E-02   5.008078E-02   2.576989E-02   5.119729E-02   1.424891E-01   1.424891E-01   2.118043E-01   1.152057E-01   2.276064E-01   6.940683E-02   1.202087E-01   1.105179E-01   4.322137E-02   5.892603E-02   2.069222E-02   1.542035E-02   1.430965E-02   9.005258E-03   1.728620E-02   9.559395E-03   1.874280E-02   4.483835E-02   7.294930E-02   1.958436E-02   1.236995E-01   4.520110E-02   1.859158E-01   1.385462E-01   1.343779E-01   9.860249E-02   1.691831E-01   1.195147E-01   1.011026E-01   5.779712E-02   3.357643E-02   1.717512E-02   1.036022E-02   6.360067E-02   6.056505E-02   6.619638E-02   5.810859E-02   1.651127E-01   2.262279E-01   3.343384E-01   1.545352E-01
   9.420311E-02   1.197393E-01   2.946468E-01   2.187517E-01   8.924618E-02   9.651168E-02   1.057277E-01   6.271565E-02   6.935652E-02   3.625123E-02   4.164427E-02   4.837301E-02   4.710317E-02   6.753492E-02   6.566240E-02   1.465873E-01   2.160283E-02   4.287884E-02   1.584005E-02   1.925568E-02   1.004701E-02   1.469768E-02   9.717943E-03   4.753724E-02   1.627911E-01   2.494743E-01   3.202554E-01   2.589224E-01   1.341919E-01   6.065200E-02   7.539810E-02   6.073185E-02   1.184367E-01   6.520395E-02   6.844576E-02   1.752545E-01   1.496450E-01   9.393093E-02   9.499583E-02   4.503804E-02   4.910655E-02   3.570563E-02   8.654407E-02   1.657731E-01   4.850223E-01   2.841676E-01   2.411127E-01   2.552456E-01   1.421053E-01   9.653375E-02   7.276903E-02   2.884749E-02   5.140094E-02   8.888731E-02   3.316284E-02   2.475481E-02   2.132789E-02   7.062396E-03   8.004162E-02   7.585198E-02   1.851967E-01   9.366263E-02   5.989788E-02   9.300975E-02   1.322927E-01   7.603294E-02   4.447528E-02   3.059456E-02   2.676902E-02   4.963134E-02   8.623902E-02   4.460203E-02   8.376621E-02   1.918754E-01   1.061182E-01   7.154346E-02   6.386231E-02   5.642937E-02   1.216588E-02   1.910739E-02   3.586119E-02   1.021851E-01   6.379133E-02   3.279955E-02   6.713456E-02   1.186750E-01   1.892354E-01   7.863185E-02   4.644893E-02   8.541034E-02   8.541034E-02   1.507556E-01   5.864947E-02   5.864947E-02   4.719768E-02   6.952337E-02   6.952337E-02   2.509171E-02   2.509171E-02   2.509171E-02   6.429683E-02   6.429683E-02   6.429683E-02   3.459349E-02   3.459349E-02   3.459349E-02   3.459349E-02   3.459349E-02   6.217993E-02   6.217993E-02   6.217993E-02   6.217993E-02   6.217993E-02   6.867566E-02   6.867566E-02   6.867566E-02   6.867566E-02   6.867566E-02   6.867566E-02   6.867566E-02   4.081922E-02   4.081922E-02   4.081922E-02   4.081922E-02   4.081922E-02   4.081922E-02   4.081922E-02   4.081922E-02   4.081922E-02   4.081922E-02   2.228718E-02   2.228718E-02   2.228718E-02   2.228718E-02   2.228718E-02   2.228718E-02   2.228718E-02   2.228718E-02   2.228718E-02   1.020605E-02   1.020605E-02   1.020605E-02   1.020605E-02   1.020605E-02   1.020605E-02   1.020605E-02   6.876674E-03   6.876674E-03   6.876674E-03   6.876674E-03   6.876674E-03   2.821115E-03   2.821115E-03   2.821115E-03   2.821115E-03   5.666226E-03   5.666226E-03   5.666226E-03   2.558153E-02   2.558153E-02   9.043368E-03   9.043368E-03   2.303846E-02   2.303846E-02   1.989675E-02   9.962006E-02   2.632978E-01   2.632978E-01   4.389149E-01   1.584723E-01   1.666691E-01   1.000975E-01   2.081136E-01   1.196281E-01   6.275558E-02   4.756474E-02   3.569804E-02   2.940365E-02   1.321317E-02   1.171101E-02   1.026416E-02   5.855949E-03   1.845685E-02   3.491388E-02   6.952194E-02   3.130682E-02   1.374509E-01   2.507389E-01   1.424247E-01   8.375006E-02   8.870102E-02   7.238360E-02   1.332549E-01   1.523457E-01   8.694948E-02   8.593195E-02   4.440053E-02   2.581096E-02   1.918269E-02   1.097021E-01   4.498352E-02   8.932312E-02   6.096771E-02   1.085432E-01   1.342439E-01   2.180252E-01   2.338196E-01