# LPF package for  MODFLOW-2005, generated by Flopy.
        53    -1E+30         0  
         1
         0
   0.000000E+00
         0
         0
INTERNAL               1 (207E15.6) -1 #hk layer 1                    
   6.167659E+01   5.968954E+01   1.781142E+02   4.935498E+02   1.403366E+02   1.204123E+02   2.138506E+01   1.025238E+01   6.215585E+00   6.322784E+00   1.249041E+01   8.041441E+01   4.339159E+01   3.808362E+01   7.303937E+01   6.512499E+01   2.644017E+02   1.304875E+02   1.120964E+02   6.454022E+01   7.590913E+01   1.368076E+02   1.016882E+02   4.823418E+01   2.323945E+01   3.204244E+01   5.920935E+01   1.128251E+02   8.666972E+01   2.504300E+02   3.749431E+02   1.024065E+02   1.171200E+02   1.590743E+02   9.282731E+01   2.322256E+02   4.798551E+01   1.643059E+02   1.593287E+02   6.121776E+01   1.079318E+02   1.084519E+02   3.758346E+01   3.150247E+01   3.600647E+01   3.113324E+01   5.670228E+01   9.551471E+01   1.926868E+02   9.561845E+01   1.057214E+02   8.281812E+01   1.073876E+02   1.075076E+02   1.256591E+02   1.422783E+02   3.717413E+01   3.086694E+01   3.440791E+01   1.056727E+02   1.442354E+02   2.221570E+02   7.297773E+01   7.106337E+01   1.290033E+02   3.893679E+02   1.716435E+02   1.257161E+02   1.024525E+02   7.645584E+01   1.837704E+02   7.375818E+01   2.656476E+01   4.349099E+01   1.078730E+02   9.937855E+01   4.924632E+01   1.017756E+02   1.933906E+01   9.374208E+00   4.353252E+00   1.147008E+01   2.186657E+01   1.941228E+01   1.764549E+01   8.796258E+00   2.450915E+01   2.179678E+01   4.768428E+01   2.835255E+01   2.835255E+01   3.057140E+01   2.627779E+01   2.627779E+01   4.580975E+01   1.138892E+02   1.138892E+02   6.819592E+01   6.819592E+01   6.819592E+01   5.748098E+01   5.748098E+01   5.748098E+01   5.764631E+01   5.764631E+01   5.764631E+01   5.764631E+01   5.764631E+01   4.072651E+01   4.072651E+01   4.072651E+01   4.072651E+01   4.072651E+01   7.118363E+01   7.118363E+01   7.118363E+01   7.118363E+01   7.118363E+01   7.118363E+01   7.118363E+01   1.646939E+02   1.646939E+02   1.646939E+02   1.646939E+02   1.646939E+02   1.646939E+02   1.646939E+02   1.646939E+02   1.646939E+02   1.646939E+02   1.001925E+02   1.001925E+02   1.001925E+02   1.001925E+02   1.001925E+02   1.001925E+02   1.001925E+02   1.001925E+02   1.001925E+02   1.117472E+02   1.117472E+02   1.117472E+02   1.117472E+02   1.117472E+02   1.117472E+02   1.117472E+02   5.602739E+01   5.602739E+01   5.602739E+01   5.602739E+01   5.602739E+01   2.261148E+01   2.261148E+01   2.261148E+01   2.261148E+01   2.341098E+01   2.341098E+01   2.341098E+01   3.441650E+01   3.441650E+01   2.412179E+01   2.412179E+01   2.159941E+01   2.159941E+01   5.245241E+01   9.858150E+01   2.636953E+02   2.636953E+02   3.656496E+02   1.171894E+03   1.136441E+03   5.703385E+02   6.945553E+02   2.314797E+02   5.031332E+01   2.941723E+01   2.337917E+01   2.754958E+01   3.972926E+01   1.189172E+02   2.117198E+02   8.226505E+01   7.110748E+01   2.319948E+02   1.338987E+02   5.337851E+01   2.739222E+01   5.497715E+01   1.731425E+01   6.934915E+00   9.762152E+00   2.180766E+01   1.761744E+01   4.800845E+01   7.078400E+01   2.314036E+02   1.169368E+02   8.175410E+01   4.347382E+01   3.493179E+01   8.778979E+01   5.760219E+01   3.092077E+02   2.787697E+02   2.348969E+02   1.637834E+02   1.873947E+02
   6.088128E+01   8.291121E+01   8.266826E+01   5.065918E+02   9.234131E+01   6.464951E+01   3.460328E+01   8.189760E+00   5.783003E+00   5.031988E+00   1.321699E+01   3.533995E+01   3.530588E+01   2.331199E+01   5.535851E+01   6.118557E+01   2.440559E+02   7.082903E+01   6.171665E+01   1.008094E+02   1.292506E+02   1.680114E+02   1.707520E+02   6.250314E+01   2.709272E+01   3.695112E+01   4.779310E+01   1.043175E+02   1.207925E+02   1.225691E+02   2.765689E+02   1.369375E+02   7.357646E+01   5.983450E+01   1.137431E+02   7.880931E+01   4.561903E+01   7.283018E+01   1.345740E+02   5.984756E+01   2.748816E+02   3.080286E+02   6.290760E+01   3.911408E+01   6.637545E+01   4.993607E+01   9.530293E+01   1.099449E+02   7.155187E+01   8.428297E+01   4.388700E+01   9.099599E+01   3.317029E+02   1.007542E+02   1.128225E+02   1.013104E+02   7.793990E+01   3.089600E+01   3.110117E+01   6.706651E+01   1.070893E+02   1.169957E+02   6.207781E+01   4.667318E+01   8.594552E+01   3.641358E+02   2.013131E+02   2.092585E+02   1.061423E+02   7.574500E+01   1.873300E+02   8.691818E+01   3.937058E+01   4.329745E+01   1.762188E+02   7.132995E+01   4.512429E+01   5.966816E+01   1.827214E+01   1.867302E+01   4.513882E+00   2.068447E+01   2.509648E+01   2.125370E+01   8.126124E+00   1.909043E+01   2.045463E+01   1.037441E+01   3.399692E+01   2.210724E+01   2.210724E+01   2.554423E+01   2.487592E+01   2.487592E+01   2.145110E+01   6.214371E+01   6.214371E+01   1.086426E+02   1.086426E+02   1.086426E+02   3.273054E+01   3.273054E+01   3.273054E+01   1.926996E+01   1.926996E+01   1.926996E+01   1.926996E+01   1.926996E+01   5.080616E+01   5.080616E+01   5.080616E+01   5.080616E+01   5.080616E+01   4.622640E+01   4.622640E+01   4.622640E+01   4.622640E+01   4.622640E+01   4.622640E+01   4.622640E+01   4.820430E+01   4.820430E+01   4.820430E+01   4.820430E+01   4.820430E+01   4.820430E+01   4.820430E+01   4.820430E+01   4.820430E+01   4.820430E+01   3.886684E+01   3.886684E+01   3.886684E+01   3.886684E+01   3.886684E+01   3.886684E+01   3.886684E+01   3.886684E+01   3.886684E+01   9.791715E+01   9.791715E+01   9.791715E+01   9.791715E+01   9.791715E+01   9.791715E+01   9.791715E+01   2.411629E+01   2.411629E+01   2.411629E+01   2.411629E+01   2.411629E+01   1.851987E+01   1.851987E+01   1.851987E+01   1.851987E+01   1.694892E+01   1.694892E+01   1.694892E+01   4.179590E+01   4.179590E+01   1.815054E+01   1.815054E+01   3.281722E+01   3.281722E+01   7.539633E+01   7.856917E+01   1.532829E+02   1.532829E+02   3.177350E+02   4.203905E+02   6.354301E+02   2.181702E+02   4.569936E+02   2.481832E+02   4.640239E+01   3.100654E+01   4.114380E+01   8.787727E+01   6.033611E+01   1.410969E+02   1.494346E+02   2.062947E+02   1.000687E+02   9.278814E+01   1.077006E+02   2.709681E+01   1.586883E+01   2.479304E+01   2.480897E+01   5.847998E+00   1.228456E+01   2.495739E+01   2.325304E+01   4.192734E+01   6.328251E+01   1.721712E+02   7.914880E+01   7.737453E+01   5.393155E+01   3.038454E+01   1.215655E+02   5.711517E+01   1.299171E+02   2.135993E+02   3.268969E+02   1.802955E+02   1.544137E+02
   5.074686E+01   5.683232E+01   1.111839E+02   9.943599E+02   2.058487E+02   1.202481E+02   6.501684E+01   1.748288E+01   5.923230E+00   6.540605E+00   1.211403E+01   1.175436E+01   3.503204E+01   1.471417E+01   2.853918E+01   5.102949E+01   8.845146E+01   4.868177E+01   5.025413E+01   1.028570E+02   1.013821E+02   8.612037E+01   1.436848E+02   7.653175E+01   3.493480E+01   8.029590E+01   4.490967E+01   4.293927E+01   1.591388E+02   2.378165E+02   2.156512E+02   1.877229E+02   3.275827E+01   4.446827E+01   4.270032E+01   7.344328E+01   5.989589E+01   4.309738E+01   8.793798E+01   1.045773E+02   1.691931E+02   1.705554E+02   8.245438E+01   3.963593E+01   8.417969E+01   7.477940E+01   8.334110E+01   9.052478E+01   6.296471E+01   6.262388E+01   1.072221E+02   1.057176E+02   1.923641E+02   6.754063E+01   8.677985E+01   5.691850E+01   4.447006E+01   2.955893E+01   3.581100E+01   4.090766E+01   8.013862E+01   1.145531E+02   3.392609E+01   4.979922E+01   6.936107E+01   1.766885E+02   1.753609E+02   2.244850E+02   2.430436E+02   1.166482E+02   3.588999E+02   1.171795E+02   2.645481E+01   4.867793E+01   3.803492E+01   3.380032E+01   5.640321E+01   8.161198E+01   4.051666E+01   7.996643E+00   8.269693E+00   2.043870E+01   3.002333E+01   5.354781E+01   1.730832E+01   1.902958E+01   2.593868E+01   1.941833E+01   1.671273E+01   1.725179E+01   1.725179E+01   1.411247E+01   1.751413E+01   1.751413E+01   1.630740E+01   2.741085E+01   2.741085E+01   5.909364E+01   5.909364E+01   5.909364E+01   3.302960E+01   3.302960E+01   3.302960E+01   1.813512E+01   1.813512E+01   1.813512E+01   1.813512E+01   1.813512E+01   2.831900E+01   2.831900E+01   2.831900E+01   2.831900E+01   2.831900E+01   3.461806E+01   3.461806E+01   3.461806E+01   3.461806E+01   3.461806E+01   3.461806E+01   3.461806E+01   4.993694E+01   4.993694E+01   4.993694E+01   4.993694E+01   4.993694E+01   4.993694E+01   4.993694E+01   4.993694E+01   4.993694E+01   4.993694E+01   6.237295E+01   6.237295E+01   6.237295E+01   6.237295E+01   6.237295E+01   6.237295E+01   6.237295E+01   6.237295E+01   6.237295E+01   5.599633E+01   5.599633E+01   5.599633E+01   5.599633E+01   5.599633E+01   5.599633E+01   5.599633E+01   2.504238E+01   2.504238E+01   2.504238E+01   2.504238E+01   2.504238E+01   1.875510E+01   1.875510E+01   1.875510E+01   1.875510E+01   2.024459E+01   2.024459E+01   2.024459E+01   5.696888E+01   5.696888E+01   1.777989E+01   1.777989E+01   1.484405E+01   1.484405E+01   9.808547E+01   1.082946E+02   2.061294E+02   2.061294E+02   3.625018E+02   4.526325E+02   8.457628E+02   1.616116E+02   1.273644E+02   1.194136E+02   9.310941E+01   7.802853E+01   5.855053E+01   3.232098E+01   7.299664E+01   1.203361E+02   1.877887E+02   1.114533E+02   5.056389E+01   7.501297E+01   6.400577E+01   2.388747E+01   1.993570E+01   1.467549E+01   2.375186E+01   1.190371E+01   1.535595E+01   2.932823E+01   2.250840E+01   4.302056E+01   3.234206E+01   1.566963E+02   1.852040E+02   1.233426E+02   8.351096E+01   4.656522E+01   5.518816E+01   6.334208E+01   1.959820E+02   2.637003E+02   1.532279E+02   2.145126E+02   2.811467E+02
   6.432264E+01   7.034739E+01   2.398109E+02   8.294321E+02   3.315533E+02   2.611605E+02   5.895590E+01   4.412157E+01   8.023157E+00   2.637164E+00   4.469386E+00   7.314021E+00   2.966199E+01   3.418909E+01   3.934044E+01   2.771270E+01   8.260293E+01   5.014694E+01   3.473373E+01   9.400958E+01   1.513474E+02   2.016531E+02   1.017498E+02   1.015972E+02   6.823907E+01   1.043969E+02   6.800305E+01   6.744878E+01   1.173021E+02   2.972391E+02   2.191812E+02   2.084651E+02   3.011740E+01   2.893912E+01   8.056945E+01   5.624292E+01   4.277646E+01   3.661017E+01   8.598763E+01   1.287332E+02   4.320086E+02   1.653783E+02   9.764271E+01   4.768578E+01   3.807347E+01   4.240086E+01   1.065578E+02   1.250818E+02   4.712703E+01   6.017940E+01   1.292843E+02   3.271360E+02   2.354743E+02   8.918013E+01   1.127396E+02   5.126913E+01   4.176610E+01   1.505356E+01   3.773335E+01   5.687858E+01   1.131553E+02   3.097964E+01   2.104309E+01   1.765868E+01   2.770211E+01   1.858350E+02   2.317817E+02   9.970928E+01   2.160183E+02   1.425802E+02   3.314844E+02   1.449569E+02   4.259346E+01   2.742415E+01   3.783180E+01   2.478004E+01   4.736825E+01   6.902130E+01   2.683937E+01   2.537066E+01   1.812019E+01   1.695187E+01   7.654604E+01   4.463894E+01   7.273597E+01   2.647094E+01   2.215336E+01   3.082280E+01   3.018967E+01   1.405136E+01   1.405136E+01   1.341962E+01   1.471456E+01   1.471456E+01   1.964696E+01   2.893605E+01   2.893605E+01   2.117994E+01   2.117994E+01   2.117994E+01   3.270989E+01   3.270989E+01   3.270989E+01   2.085231E+01   2.085231E+01   2.085231E+01   2.085231E+01   2.085231E+01   2.405958E+01   2.405958E+01   2.405958E+01   2.405958E+01   2.405958E+01   3.229357E+01   3.229357E+01   3.229357E+01   3.229357E+01   3.229357E+01   3.229357E+01   3.229357E+01   3.600892E+01   3.600892E+01   3.600892E+01   3.600892E+01   3.600892E+01   3.600892E+01   3.600892E+01   3.600892E+01   3.600892E+01   3.600892E+01   3.498876E+01   3.498876E+01   3.498876E+01   3.498876E+01   3.498876E+01   3.498876E+01   3.498876E+01   3.498876E+01   3.498876E+01   3.906477E+01   3.906477E+01   3.906477E+01   3.906477E+01   3.906477E+01   3.906477E+01   3.906477E+01   2.876684E+01   2.876684E+01   2.876684E+01   2.876684E+01   2.876684E+01   1.525803E+01   1.525803E+01   1.525803E+01   1.525803E+01   1.650753E+01   1.650753E+01   1.650753E+01   3.655991E+01   3.655991E+01   3.088530E+01   3.088530E+01   3.030945E+01   3.030945E+01   1.467454E+02   7.233974E+01   2.527224E+02   2.527224E+02   4.950379E+02   2.655812E+02   2.392965E+02   1.225157E+02   8.334939E+01   1.339757E+02   1.085563E+02   5.946998E+01   5.621722E+01   6.754163E+01   1.360040E+02   6.713441E+01   1.029820E+02   9.702605E+01   9.692491E+01   7.894550E+01   3.355389E+01   1.840489E+01   3.134874E+01   7.328735E+00   2.239448E+01   1.500306E+01   4.961181E+01   4.844410E+01   5.537901E+01   4.636999E+01   4.842895E+01   1.542110E+02   1.526458E+02   2.500223E+02   8.411512E+01   4.237191E+01   3.443027E+01   5.966420E+01   1.043392E+02   3.232036E+02   9.615516E+01   9.165590E+01   7.060924E+01
   1.066518E+02   1.911626E+02   3.481039E+02   7.363193E+02   5.669445E+02   3.175739E+02   2.995631E+01   3.412700E+01   9.358613E+00   1.890178E+00   7.147619E+00   1.017370E+01   1.885474E+01   3.159895E+01   4.287313E+01   2.088129E+01   5.768022E+01   4.357597E+01   3.326542E+01   5.208638E+01   8.801093E+01   1.122819E+02   7.137699E+01   6.641382E+01   1.234375E+02   1.151089E+02   1.195878E+02   7.059064E+01   1.323906E+02   2.065145E+02   1.601707E+02   1.990019E+02   5.165271E+01   9.632394E+01   5.986990E+01   6.601231E+01   4.293343E+01   2.469753E+01   3.614566E+01   1.034474E+02   2.957496E+02   1.270902E+02   2.799456E+01   5.283991E+01   4.376257E+01   5.540733E+01   1.669185E+02   7.194622E+01   5.289733E+01   3.405202E+01   7.816936E+01   3.723958E+02   2.745201E+02   2.340207E+02   9.973601E+01   8.461372E+01   3.136858E+01   3.105369E+01   3.927512E+01   4.967956E+01   6.275015E+01   3.079731E+01   1.982374E+01   1.148662E+01   1.390376E+01   1.278530E+02   2.943895E+02   2.930722E+01   1.208730E+02   1.795733E+02   2.644930E+02   1.667406E+02   1.026027E+02   5.157128E+01   2.698617E+01   3.370800E+01   4.259166E+01   1.491609E+02   4.099208E+01   1.503344E+01   1.016786E+01   2.368047E+01   1.489419E+02   5.469069E+01   5.335067E+01   5.804230E+01   3.222910E+01   4.592390E+01   4.084695E+01   7.364122E+00   7.364122E+00   9.845908E+00   1.053059E+01   1.053059E+01   2.189115E+01   2.029319E+01   2.029319E+01   1.762414E+01   1.762414E+01   1.762414E+01   2.499451E+01   2.499451E+01   2.499451E+01   7.082438E+01   7.082438E+01   7.082438E+01   7.082438E+01   7.082438E+01   3.847156E+01   3.847156E+01   3.847156E+01   3.847156E+01   3.847156E+01   3.447163E+01   3.447163E+01   3.447163E+01   3.447163E+01   3.447163E+01   3.447163E+01   3.447163E+01   4.100438E+01   4.100438E+01   4.100438E+01   4.100438E+01   4.100438E+01   4.100438E+01   4.100438E+01   4.100438E+01   4.100438E+01   4.100438E+01   3.105427E+01   3.105427E+01   3.105427E+01   3.105427E+01   3.105427E+01   3.105427E+01   3.105427E+01   3.105427E+01   3.105427E+01   3.005950E+01   3.005950E+01   3.005950E+01   3.005950E+01   3.005950E+01   3.005950E+01   3.005950E+01   1.993764E+01   1.993764E+01   1.993764E+01   1.993764E+01   1.993764E+01   9.990043E+00   9.990043E+00   9.990043E+00   9.990043E+00   1.023748E+01   1.023748E+01   1.023748E+01   3.420455E+01   3.420455E+01   8.258231E+01   8.258231E+01   2.790594E+01   2.790594E+01   7.174146E+01   7.406208E+01   2.201579E+02   2.201579E+02   4.516607E+02   2.522941E+02   8.622063E+01   5.689280E+01   7.612083E+01   1.893334E+02   6.473431E+01   5.402658E+01   5.561037E+01   3.719189E+01   1.098859E+02   1.227027E+02   1.002065E+02   1.255466E+02   8.077695E+01   6.821370E+01   3.245124E+01   1.084016E+01   2.931750E+01   5.958807E+00   9.488981E+00   6.394983E+00   3.865060E+01   4.079370E+01   1.734761E+02   1.632565E+02   1.166339E+02   1.089593E+02   8.238859E+01   1.602236E+02   8.945723E+01   8.531494E+01   2.603338E+01   3.436797E+01   9.155401E+01   2.126587E+02   9.086868E+01   1.072489E+02   2.682027E+01
   1.187806E+02   2.946840E+02   3.118920E+02   2.563384E+02   2.982656E+02   1.435212E+02   1.708999E+01   1.983599E+01   7.847686E+00   1.625255E+00   8.344398E+00   1.181187E+01   1.564428E+01   3.005306E+01   2.034279E+01   2.423045E+01   5.698579E+01   4.512011E+01   4.968779E+01   4.410656E+01   1.118915E+02   1.091482E+02   1.125465E+02   1.570345E+02   1.033719E+02   9.511181E+01   1.065010E+02   1.828982E+02   1.952212E+02   2.158619E+02   1.245392E+02   1.061805E+02   5.881429E+01   1.153556E+02   8.773254E+01   6.852048E+01   5.304489E+01   3.504478E+01   5.393541E+01   7.439536E+01   2.717273E+02   1.508133E+02   3.764937E+01   3.109488E+01   5.960311E+01   5.950683E+01   1.624087E+02   4.640133E+01   4.115454E+01   2.609109E+01   8.592243E+01   2.101872E+02   2.477091E+02   2.269721E+02   8.484577E+01   1.032143E+02   2.016771E+01   2.287765E+01   4.021636E+01   4.168462E+01   5.846626E+01   5.325110E+01   1.894116E+01   2.737184E+01   1.741641E+01   4.646045E+01   1.816586E+02   7.210299E+01   4.663948E+01   1.367413E+02   8.933878E+01   1.125346E+02   1.348426E+02   8.151949E+01   8.137448E+01   6.734675E+01   4.556243E+01   7.375684E+01   2.087807E+01   9.426028E+00   9.839394E+00   2.108463E+01   4.693582E+01   8.964767E+01   1.379763E+02   1.123006E+02   1.252312E+02   7.017097E+01   5.535888E+01   1.108696E+01   1.108696E+01   1.678455E+01   1.968507E+01   1.968507E+01   1.420689E+01   2.771808E+01   2.771808E+01   4.298325E+01   4.298325E+01   4.298325E+01   2.589644E+01   2.589644E+01   2.589644E+01   6.433556E+01   6.433556E+01   6.433556E+01   6.433556E+01   6.433556E+01   5.172901E+01   5.172901E+01   5.172901E+01   5.172901E+01   5.172901E+01   1.115435E+02   1.115435E+02   1.115435E+02   1.115435E+02   1.115435E+02   1.115435E+02   1.115435E+02   6.045343E+01   6.045343E+01   6.045343E+01   6.045343E+01   6.045343E+01   6.045343E+01   6.045343E+01   6.045343E+01   6.045343E+01   6.045343E+01   1.134143E+02   1.134143E+02   1.134143E+02   1.134143E+02   1.134143E+02   1.134143E+02   1.134143E+02   1.134143E+02   1.134143E+02   7.601545E+01   7.601545E+01   7.601545E+01   7.601545E+01   7.601545E+01   7.601545E+01   7.601545E+01   4.707181E+01   4.707181E+01   4.707181E+01   4.707181E+01   4.707181E+01   1.736626E+01   1.736626E+01   1.736626E+01   1.736626E+01   6.727521E+00   6.727521E+00   6.727521E+00   2.984915E+01   2.984915E+01   5.287657E+01   5.287657E+01   1.375166E+02   1.375166E+02   9.193291E+01   9.824419E+01   3.295935E+02   3.295935E+02   1.695217E+02   1.975127E+02   3.826741E+01   5.930359E+01   9.406536E+01   9.173706E+01   9.560207E+01   4.520850E+01   5.479292E+01   4.794036E+01   1.314677E+02   1.517588E+02   3.736530E+01   9.590797E+01   6.422452E+01   1.200763E+02   4.882595E+01   1.946559E+01   2.695482E+01   9.456296E+00   1.438606E+01   2.207821E+01   8.380424E+01   9.087106E+01   2.044826E+02   1.611629E+02   2.158997E+02   6.833200E+01   1.118821E+02   1.533356E+02   7.299033E+01   4.793827E+01   3.762336E+01   3.031131E+01   1.520751E+02   2.223582E+02   6.959823E+01   5.789158E+01   2.359346E+01
   4.143990E+01   6.916657E+01   1.504067E+02   9.681313E+01   3.132279E+02   8.988081E+01   4.363739E+01   1.744085E+01   2.363990E+01   6.355988E+00   7.542095E+00   1.271954E+01   1.561567E+01   9.771739E+00   1.823875E+01   3.877085E+01   6.068600E+01   1.338220E+01   3.160244E+01   4.518920E+01   4.859552E+01   5.565942E+01   8.869025E+01   1.214677E+02   1.419588E+02   1.094858E+02   1.200347E+02   2.160981E+02   1.841183E+02   2.184952E+02   6.789271E+01   2.129841E+02   8.214150E+01   1.017439E+02   1.112038E+02   1.193615E+02   4.365054E+01   4.238222E+01   3.544579E+01   1.197622E+02   2.080292E+02   4.342362E+01   8.148882E+01   3.484524E+01   1.390153E+02   6.717001E+01   1.780590E+02   1.838174E+01   1.261920E+01   3.825231E+01   4.476304E+01   1.202191E+02   1.499858E+02   8.867115E+01   8.534582E+01   1.556533E+02   4.620720E+01   2.654349E+01   5.343906E+01   4.135495E+01   6.318647E+01   8.208817E+01   2.109465E+01   6.848270E+01   2.292022E+01   3.055247E+01   2.816090E+01   3.057916E+01   4.159286E+01   1.205358E+02   1.073547E+02   1.001961E+02   1.610435E+02   2.820751E+02   1.039293E+02   6.044839E+01   5.143288E+01   4.335953E+01   3.366972E+01   1.187493E+01   9.253337E+00   4.783363E+01   2.362251E+01   6.128580E+01   2.080470E+02   1.603672E+02   2.475259E+02   1.142241E+02   3.592554E+01   2.534972E+01   2.534972E+01   2.191943E+01   3.802211E+01   3.802211E+01   4.058720E+01   3.737187E+01   3.737187E+01   9.345134E+01   9.345134E+01   9.345134E+01   3.976209E+01   3.976209E+01   3.976209E+01   7.269560E+01   7.269560E+01   7.269560E+01   7.269560E+01   7.269560E+01   5.066329E+01   5.066329E+01   5.066329E+01   5.066329E+01   5.066329E+01   1.041478E+02   1.041478E+02   1.041478E+02   1.041478E+02   1.041478E+02   1.041478E+02   1.041478E+02   8.550793E+01   8.550793E+01   8.550793E+01   8.550793E+01   8.550793E+01   8.550793E+01   8.550793E+01   8.550793E+01   8.550793E+01   8.550793E+01   8.006830E+01   8.006830E+01   8.006830E+01   8.006830E+01   8.006830E+01   8.006830E+01   8.006830E+01   8.006830E+01   8.006830E+01   7.192406E+01   7.192406E+01   7.192406E+01   7.192406E+01   7.192406E+01   7.192406E+01   7.192406E+01   2.208079E+01   2.208079E+01   2.208079E+01   2.208079E+01   2.208079E+01   2.954049E+01   2.954049E+01   2.954049E+01   2.954049E+01   1.532382E+01   1.532382E+01   1.532382E+01   5.205985E+01   5.205985E+01   6.997499E+01   6.997499E+01   8.455734E+01   8.455734E+01   8.453635E+01   8.459576E+01   9.579039E+01   9.579039E+01   1.591382E+02   2.071298E+02   6.034962E+01   6.059362E+01   6.186147E+01   4.467403E+01   2.819402E+01   4.655399E+01   5.260210E+01   3.814425E+01   8.006706E+01   1.670103E+02   4.159317E+01   1.407433E+02   8.906323E+01   7.471490E+01   4.678096E+01   8.449496E+00   1.393686E+01   1.777540E+01   3.468123E+01   4.675532E+01   7.979147E+01   1.745715E+02   2.129290E+02   3.530959E+02   1.613736E+02   1.442171E+02   9.861821E+01   1.471675E+02   8.808542E+01   6.420848E+01   7.131571E+01   8.833155E+01   2.186201E+02   3.798728E+02   1.065851E+02   7.813617E+01   2.607603E+01
   4.891123E+01   5.260996E+01   3.674722E+01   1.198836E+02   1.778522E+02   1.362405E+02   4.268975E+01   4.849362E+01   2.088553E+01   6.706464E+00   8.317589E+00   1.545599E+01   3.110173E+01   9.785069E+00   1.582863E+01   1.069771E+02   4.801581E+01   1.655627E+01   3.834766E+01   3.024249E+01   4.600060E+01   8.818610E+01   8.856905E+01   8.856105E+01   9.644607E+01   1.617663E+02   9.361853E+01   1.764194E+02   2.352972E+02   8.078312E+01   1.015896E+02   9.862579E+01   1.523943E+02   1.305733E+02   1.066240E+02   1.189101E+02   6.313883E+01   6.757359E+01   2.366132E+01   8.843031E+01   2.712198E+02   7.575262E+01   9.407246E+01   5.177710E+01   8.347396E+01   8.340651E+01   9.799271E+01   2.850219E+01   2.255384E+01   4.619941E+01   4.932439E+01   9.891923E+01   1.243551E+02   1.325272E+02   3.738005E+01   9.781110E+01   2.704782E+01   3.144652E+01   9.827031E+01   8.873148E+01   9.774231E+01   9.780345E+01   4.050213E+01   3.231277E+01   4.236831E+01   4.131855E+01   1.789302E+01   5.319794E+01   3.257964E+01   8.580288E+01   9.308191E+01   1.308180E+02   3.515563E+02   2.834019E+02   7.727025E+01   7.069404E+01   4.850546E+01   4.204315E+01   5.433332E+01   2.057491E+01   1.694507E+01   1.206725E+02   7.446526E+01   6.787418E+01   2.630616E+02   1.652186E+02   1.662506E+02   1.860874E+02   8.220940E+01   2.589394E+01   2.589394E+01   2.995194E+01   3.259023E+01   3.259023E+01   6.991517E+01   4.758564E+01   4.758564E+01   1.068260E+02   1.068260E+02   1.068260E+02   6.602517E+01   6.602517E+01   6.602517E+01   5.983461E+01   5.983461E+01   5.983461E+01   5.983461E+01   5.983461E+01   1.270758E+02   1.270758E+02   1.270758E+02   1.270758E+02   1.270758E+02   1.507625E+02   1.507625E+02   1.507625E+02   1.507625E+02   1.507625E+02   1.507625E+02   1.507625E+02   1.310190E+02   1.310190E+02   1.310190E+02   1.310190E+02   1.310190E+02   1.310190E+02   1.310190E+02   1.310190E+02   1.310190E+02   1.310190E+02   8.191595E+01   8.191595E+01   8.191595E+01   8.191595E+01   8.191595E+01   8.191595E+01   8.191595E+01   8.191595E+01   8.191595E+01   1.117970E+02   1.117970E+02   1.117970E+02   1.117970E+02   1.117970E+02   1.117970E+02   1.117970E+02   6.231521E+01   6.231521E+01   6.231521E+01   6.231521E+01   6.231521E+01   4.051448E+01   4.051448E+01   4.051448E+01   4.051448E+01   2.566767E+01   2.566767E+01   2.566767E+01   4.903218E+01   4.903218E+01   3.073374E+01   3.073374E+01   6.228671E+01   6.228671E+01   8.933097E+01   1.186444E+02   1.130105E+02   1.130105E+02   1.127013E+02   1.529731E+02   1.839304E+02   4.273124E+01   6.539526E+01   3.872779E+01   3.988873E+01   5.936900E+01   3.466572E+01   4.044589E+01   3.304509E+01   6.500726E+01   6.103573E+01   9.428558E+01   9.328272E+01   9.681044E+01   2.237759E+01   8.622192E+00   4.914532E+00   6.602837E+00   2.563624E+01   6.234574E+01   1.200161E+02   3.124304E+02   1.500823E+02   2.459619E+02   4.591096E+01   8.639907E+01   5.985374E+01   1.240207E+02   3.820393E+01   3.196699E+01   5.800108E+01   1.663354E+02   1.794950E+02   2.995372E+02   8.178664E+01   1.082312E+02   5.515546E+01
   4.168219E+01   2.089951E+01   3.782157E+01   5.071969E+01   1.240910E+02   1.049419E+02   4.883841E+01   4.242288E+01   2.815061E+01   1.686567E+01   1.618414E+01   1.819699E+01   3.336720E+01   1.196140E+01   2.828536E+01   6.212063E+01   8.226192E+01   3.481142E+01   8.208273E+01   2.466801E+01   5.378268E+01   1.028067E+02   1.636595E+02   1.487573E+02   7.136008E+01   1.362214E+02   1.044594E+02   1.913882E+02   2.059151E+02   8.128675E+01   1.092884E+02   1.485558E+02   1.261857E+02   1.753926E+02   1.790704E+02   1.379764E+02   9.341311E+01   4.812502E+01   1.680388E+01   2.927415E+01   1.177873E+02   5.257242E+01   9.968950E+01   4.845043E+01   6.303530E+01   8.045751E+01   1.196704E+02   6.592955E+01   5.404804E+01   5.451529E+01   1.017133E+02   1.475313E+02   8.981487E+01   8.053899E+01   6.666790E+01   1.081366E+02   2.651952E+01   4.500777E+01   2.156576E+01   6.767182E+01   1.440051E+02   5.049268E+01   7.471272E+01   1.470827E+01   2.354803E+01   3.492420E+01   1.278756E+01   2.568100E+01   3.473586E+01   7.852476E+01   1.477448E+02   8.430188E+01   2.077980E+02   2.655812E+02   1.721879E+02   7.011507E+01   4.462030E+01   2.767695E+01   8.763380E+01   3.647437E+01   3.666154E+01   9.810322E+01   6.965080E+01   6.689435E+01   2.878330E+02   1.415683E+02   1.249068E+02   2.208292E+02   1.197644E+02   3.400338E+01   3.400338E+01   5.405476E+01   5.148610E+01   5.148610E+01   6.728213E+01   8.846597E+01   8.846597E+01   9.708640E+01   9.708640E+01   9.708640E+01   8.194577E+01   8.194577E+01   8.194577E+01   9.295107E+01   9.295107E+01   9.295107E+01   9.295107E+01   9.295107E+01   1.871901E+02   1.871901E+02   1.871901E+02   1.871901E+02   1.871901E+02   1.221781E+02   1.221781E+02   1.221781E+02   1.221781E+02   1.221781E+02   1.221781E+02   1.221781E+02   1.216704E+02   1.216704E+02   1.216704E+02   1.216704E+02   1.216704E+02   1.216704E+02   1.216704E+02   1.216704E+02   1.216704E+02   1.216704E+02   1.420417E+02   1.420417E+02   1.420417E+02   1.420417E+02   1.420417E+02   1.420417E+02   1.420417E+02   1.420417E+02   1.420417E+02   1.093800E+02   1.093800E+02   1.093800E+02   1.093800E+02   1.093800E+02   1.093800E+02   1.093800E+02   9.318761E+01   9.318761E+01   9.318761E+01   9.318761E+01   9.318761E+01   2.637926E+01   2.637926E+01   2.637926E+01   2.637926E+01   3.712943E+01   3.712943E+01   3.712943E+01   3.852670E+01   3.852670E+01   6.918679E+01   6.918679E+01   8.424171E+01   8.424171E+01   1.846997E+02   9.029506E+01   1.003224E+02   1.003224E+02   7.088995E+01   9.160745E+01   8.051071E+01   5.447379E+01   3.164012E+01   1.232640E+01   2.882982E+01   6.597153E+01   3.611762E+01   3.873036E+01   4.869104E+01   1.317948E+02   3.971178E+01   3.778581E+01   5.810107E+01   3.336646E+01   2.682767E+01   1.068325E+01   7.499877E+00   4.431159E+00   2.856114E+01   5.089132E+01   1.218863E+02   1.671379E+02   2.270376E+02   2.636592E+02   8.278957E+01   1.104416E+02   3.513285E+01   4.789667E+01   2.524074E+01   3.997450E+01   4.624470E+01   1.808977E+02   1.414038E+02   3.173510E+02   5.562122E+01   4.166382E+01   7.817059E+01