# Name file for MODFLOW-2005, generated by Flopy version 3.3.2.
#xll:0.0; yll:0.0; rotation:0.0; units:meters; lenuni:2; start_datetime:2020-09-05
LIST               2  whpa.list
DIS               11  whpa.dis
WEL               20  whpa.wel
BAS6              13  whpa.bas
PCG               27  whpa.pcg
OC                14  whpa.oc
LMT6              30  whpa.lmt6
LPF               15  whpa.lpf
DATA(BINARY)      51  whpa.hds REPLACE
DATA(BINARY)      53  whpa.cbc REPLACE
