# LPF package for  MODFLOW-2005, generated by Flopy.
        53    -1E+30         0  
         1
         0
   0.000000E+00
         0
         0
INTERNAL               1 (207E15.6) -1 #hk layer 1                    
   1.758755E+01   2.363518E+01   8.246193E+01   7.380309E+01   4.786131E+01   2.383104E+01   2.299605E+01   5.741626E+01   1.961447E+02   7.813036E+01   1.072859E+02   8.310488E+01   5.505917E+01   6.621526E+01   3.908998E+01   1.283362E+01   7.161060E+00   1.393434E+01   9.598944E+01   2.908151E+02   4.281745E+02   2.852001E+02   2.188105E+02   1.240627E+02   8.991089E+01   5.700591E+01   5.527546E+01   7.302287E+01   8.141090E+01   3.624123E+01   1.429031E+01   3.357605E+01   4.557873E+01   4.068890E+01   3.158278E+01   3.231368E+01   1.039415E+02   3.596484E+01   7.031477E+01   7.184277E+01   4.965851E+01   2.376655E+01   3.837431E+01   4.272210E+01   5.404341E+01   1.210517E+02   4.244991E+01   2.002792E+01   5.459043E+01   5.428714E+01   5.393003E+01   1.851786E+02   1.453042E+02   1.206053E+02   1.321690E+02   1.112260E+02   5.050188E+01   1.007507E+02   1.115552E+02   6.873446E+01   8.714288E+01   4.645337E+01   2.684613E+02   5.495430E+01   8.456976E+01   8.495316E+01   5.007706E+01   5.943351E+01   1.469575E+01   5.545446E+01   1.248976E+02   1.691375E+02   1.089892E+02   5.465165E+01   5.512723E+01   8.301852E+01   4.258609E+01   6.412170E+01   2.167821E+01   4.460547E+01   8.938137E+01   6.516937E+01   1.376494E+02   1.518435E+02   5.989735E+01   1.379775E+02   8.512764E+01   6.259190E+01   8.021381E+01   2.762942E+01   2.762942E+01   1.700206E+01   1.422758E+01   1.422758E+01   2.966508E+01   5.662112E+01   5.662112E+01   6.956263E+01   6.956263E+01   6.956263E+01   1.808238E+02   1.808238E+02   1.808238E+02   2.454964E+01   2.454964E+01   2.454964E+01   2.454964E+01   2.454964E+01   1.254626E+01   1.254626E+01   1.254626E+01   1.254626E+01   1.254626E+01   1.374749E+01   1.374749E+01   1.374749E+01   1.374749E+01   1.374749E+01   1.374749E+01   1.374749E+01   3.776896E+01   3.776896E+01   3.776896E+01   3.776896E+01   3.776896E+01   3.776896E+01   3.776896E+01   3.776896E+01   3.776896E+01   3.776896E+01   3.138292E+01   3.138292E+01   3.138292E+01   3.138292E+01   3.138292E+01   3.138292E+01   3.138292E+01   3.138292E+01   3.138292E+01   6.686134E+01   6.686134E+01   6.686134E+01   6.686134E+01   6.686134E+01   6.686134E+01   6.686134E+01   2.706496E+01   2.706496E+01   2.706496E+01   2.706496E+01   2.706496E+01   9.545705E+01   9.545705E+01   9.545705E+01   9.545705E+01   4.315901E+02   4.315901E+02   4.315901E+02   1.776938E+02   1.776938E+02   4.925027E+01   4.925027E+01   5.293794E+01   5.293794E+01   1.840191E+02   2.492374E+02   3.360997E+02   3.360997E+02   1.820298E+02   2.559483E+02   1.547224E+02   1.617959E+02   2.288963E+02   1.094837E+02   2.096811E+02   1.645453E+02   1.579144E+02   5.549891E+01   7.580470E+01   3.168904E+01   5.172570E+01   5.785767E+01   3.888378E+01   4.885141E+01   2.587637E+02   2.330830E+02   2.034808E+02   3.963565E+02   6.740749E+01   4.758591E+01   5.283251E+01   1.123593E+02   2.282708E+02   1.619353E+02   6.943604E+01   9.566905E+01   5.798563E+01   3.083840E+01   3.107162E+01   9.585770E+00   2.083306E+01   2.679251E+01   3.275373E+01   3.467124E+01   1.351487E+02   1.429125E+02   5.510460E+01
   1.230427E+01   2.637477E+01   3.897563E+01   2.931875E+01   3.190109E+01   1.564138E+01   2.476720E+01   4.269359E+01   1.623322E+02   1.131645E+02   7.293147E+01   5.422395E+01   4.748900E+01   2.953829E+01   7.361559E+01   2.399377E+01   1.013597E+01   1.610844E+01   1.398478E+02   2.404307E+02   1.986412E+02   2.881639E+02   4.926057E+02   1.231976E+02   7.519999E+01   4.575443E+01   3.042804E+01   4.639835E+01   5.283141E+01   1.868328E+01   2.386559E+01   2.675133E+01   6.613121E+01   1.127023E+02   9.840995E+01   7.721220E+01   3.499957E+01   2.327564E+01   6.152978E+01   1.205258E+02   1.470934E+02   2.169925E+01   1.852120E+01   4.124902E+01   8.499943E+01   2.079472E+02   7.445269E+01   6.462359E+00   3.258340E+01   3.810321E+01   6.726452E+01   2.114631E+02   2.891888E+02   1.135018E+02   6.467651E+01   7.127799E+01   4.568140E+01   8.497132E+01   6.902523E+01   3.365459E+01   3.794064E+01   7.065111E+01   1.377729E+02   3.801522E+01   7.345170E+01   8.167243E+01   5.678613E+01   8.157526E+01   1.571039E+01   4.853350E+01   6.741873E+01   1.287064E+02   6.674841E+01   7.512960E+01   1.223615E+02   6.608961E+01   4.715503E+01   9.217837E+01   2.166368E+01   4.202256E+01   6.298499E+01   4.558843E+01   1.342483E+02   1.020128E+02   5.425684E+01   1.277947E+02   4.985909E+01   6.695635E+01   6.700093E+01   3.968504E+01   3.968504E+01   2.050394E+01   1.829726E+01   1.829726E+01   3.183956E+01   3.007468E+01   3.007468E+01   9.514268E+01   9.514268E+01   9.514268E+01   6.981049E+01   6.981049E+01   6.981049E+01   2.191319E+01   2.191319E+01   2.191319E+01   2.191319E+01   2.191319E+01   1.475693E+01   1.475693E+01   1.475693E+01   1.475693E+01   1.475693E+01   2.362099E+01   2.362099E+01   2.362099E+01   2.362099E+01   2.362099E+01   2.362099E+01   2.362099E+01   8.580357E+01   8.580357E+01   8.580357E+01   8.580357E+01   8.580357E+01   8.580357E+01   8.580357E+01   8.580357E+01   8.580357E+01   8.580357E+01   1.113100E+01   1.113100E+01   1.113100E+01   1.113100E+01   1.113100E+01   1.113100E+01   1.113100E+01   1.113100E+01   1.113100E+01   1.096704E+02   1.096704E+02   1.096704E+02   1.096704E+02   1.096704E+02   1.096704E+02   1.096704E+02   6.917490E+01   6.917490E+01   6.917490E+01   6.917490E+01   6.917490E+01   3.448878E+02   3.448878E+02   3.448878E+02   3.448878E+02   5.398557E+02   5.398557E+02   5.398557E+02   2.003866E+02   2.003866E+02   7.996659E+01   7.996659E+01   4.123266E+01   4.123266E+01   1.166052E+02   1.640148E+02   7.694913E+01   7.694913E+01   1.798774E+02   2.797278E+02   2.007985E+02   2.363685E+02   1.142477E+02   9.796337E+01   7.778539E+01   8.087137E+01   6.002180E+01   4.186200E+01   4.751510E+01   2.784669E+01   5.703325E+01   8.153938E+01   3.559009E+01   9.248946E+01   2.102760E+02   1.694312E+02   3.104040E+02   2.883211E+02   5.299861E+01   5.857349E+01   9.903218E+01   9.603780E+01   1.738839E+02   5.550374E+01   1.000815E+02   9.282531E+01   6.957442E+01   3.184154E+01   5.020380E+01   2.821528E+01   3.611956E+01   1.935327E+01   1.817204E+01   1.874326E+01   1.261517E+02   1.008421E+02   1.091916E+02
   8.196719E+00   2.726675E+01   1.678806E+01   2.002958E+01   3.402258E+01   8.836596E+00   3.518152E+01   6.943975E+01   1.148672E+02   1.016277E+02   4.090715E+01   6.926924E+01   7.613757E+01   2.784284E+01   6.120686E+01   2.743608E+01   2.142071E+01   5.550721E+01   2.102539E+02   1.963613E+02   1.807481E+02   5.138813E+02   3.647262E+02   1.775852E+02   6.932954E+01   3.475198E+01   1.043776E+01   2.596054E+01   2.506474E+01   2.008772E+01   2.736750E+01   4.063982E+01   7.008803E+01   2.316214E+02   1.788260E+02   7.320087E+01   3.245182E+01   2.416355E+01   6.609829E+01   9.050265E+01   7.498341E+01   2.756828E+01   2.945440E+01   1.271320E+02   1.650700E+02   1.537122E+02   4.807289E+01   1.162209E+01   3.923852E+01   5.168367E+01   2.396093E+02   1.166136E+02   2.529249E+02   9.390948E+01   4.527383E+01   1.853960E+01   2.849279E+01   1.475775E+02   8.969086E+01   2.067440E+01   1.668715E+01   5.013032E+01   9.501561E+01   4.193414E+01   6.394725E+01   6.592529E+01   5.211818E+01   6.237210E+01   2.041318E+01   4.892738E+01   3.964162E+01   1.884016E+02   1.239758E+02   1.020789E+02   7.105054E+01   3.079432E+01   7.811155E+01   8.805744E+01   4.285991E+01   4.064671E+01   5.949058E+01   8.295648E+01   1.719496E+02   1.316849E+02   1.245227E+02   1.558053E+02   5.197015E+01   6.884737E+01   1.331997E+02   9.568111E+01   9.568111E+01   5.094248E+01   2.760852E+01   2.760852E+01   4.494671E+01   7.788213E+01   7.788213E+01   1.379587E+02   1.379587E+02   1.379587E+02   6.504846E+01   6.504846E+01   6.504846E+01   4.266027E+01   4.266027E+01   4.266027E+01   4.266027E+01   4.266027E+01   2.143276E+01   2.143276E+01   2.143276E+01   2.143276E+01   2.143276E+01   2.979356E+01   2.979356E+01   2.979356E+01   2.979356E+01   2.979356E+01   2.979356E+01   2.979356E+01   1.415544E+01   1.415544E+01   1.415544E+01   1.415544E+01   1.415544E+01   1.415544E+01   1.415544E+01   1.415544E+01   1.415544E+01   1.415544E+01   1.224124E+01   1.224124E+01   1.224124E+01   1.224124E+01   1.224124E+01   1.224124E+01   1.224124E+01   1.224124E+01   1.224124E+01   1.480779E+02   1.480779E+02   1.480779E+02   1.480779E+02   1.480779E+02   1.480779E+02   1.480779E+02   1.077701E+02   1.077701E+02   1.077701E+02   1.077701E+02   1.077701E+02   5.963677E+02   5.963677E+02   5.963677E+02   5.963677E+02   4.022501E+02   4.022501E+02   4.022501E+02   5.097860E+02   5.097860E+02   3.004694E+02   3.004694E+02   7.450691E+01   7.450691E+01   6.202281E+01   1.519608E+02   1.501053E+02   1.501053E+02   1.587976E+02   2.314690E+02   1.902006E+02   2.046330E+02   1.169638E+02   7.349455E+01   6.032719E+01   3.235343E+01   3.379142E+01   1.553206E+01   1.271532E+01   4.487487E+01   8.765821E+01   1.727022E+02   3.630883E+01   1.263657E+02   9.140054E+01   2.283595E+02   3.255825E+02   9.784394E+01   2.823050E+01   8.280572E+01   5.892652E+01   1.008396E+02   1.488632E+02   6.723175E+01   1.632240E+02   6.895957E+01   9.277212E+01   3.094512E+01   4.682040E+01   3.126658E+01   2.899315E+01   2.673746E+01   2.430629E+01   1.570752E+01   6.051042E+01   8.114139E+01   6.134591E+01
   1.021994E+01   2.721012E+01   1.357653E+01   2.436298E+01   2.352022E+01   1.852157E+01   6.136847E+01   6.608815E+01   7.468681E+01   8.131243E+01   4.414903E+01   3.756883E+01   4.547017E+01   3.604000E+01   4.279353E+01   2.749807E+01   5.549965E+01   5.065756E+01   1.758552E+02   1.202725E+02   3.583728E+02   2.812441E+02   1.195472E+02   2.591814E+02   1.752322E+02   2.383925E+01   1.901703E+01   1.209390E+01   3.168063E+01   9.592428E+00   1.242394E+01   4.423337E+01   1.049410E+02   2.887870E+02   2.283839E+02   2.124113E+02   3.150931E+01   3.558793E+01   1.066542E+02   9.157867E+01   8.257072E+01   3.290900E+01   3.953777E+01   7.922094E+01   1.095160E+02   8.463335E+01   1.160509E+02   3.879890E+01   6.120991E+01   7.642067E+01   2.194901E+02   1.357086E+02   1.058309E+02   9.984278E+01   3.802790E+01   2.319495E+01   1.562154E+01   4.911897E+01   3.970174E+01   2.329202E+01   1.764142E+01   4.463115E+01   3.938733E+01   6.766605E+01   3.893842E+01   8.530018E+01   5.179573E+01   6.082103E+01   4.484933E+01   7.514540E+01   8.012427E+01   9.860719E+01   9.835138E+01   2.077284E+02   7.783180E+01   7.776734E+01   9.451994E+01   3.905054E+01   1.281656E+02   8.946481E+01   5.277066E+01   1.001047E+02   1.316643E+02   1.832200E+02   5.296611E+01   1.184855E+02   4.909301E+01   5.638071E+01   1.607488E+02   8.818832E+01   8.818832E+01   4.197319E+01   3.285334E+01   3.285334E+01   1.279382E+02   9.773209E+01   9.773209E+01   8.604740E+01   8.604740E+01   8.604740E+01   4.858233E+01   4.858233E+01   4.858233E+01   3.198938E+01   3.198938E+01   3.198938E+01   3.198938E+01   3.198938E+01   3.545104E+01   3.545104E+01   3.545104E+01   3.545104E+01   3.545104E+01   1.922985E+01   1.922985E+01   1.922985E+01   1.922985E+01   1.922985E+01   1.922985E+01   1.922985E+01   6.237900E+00   6.237900E+00   6.237900E+00   6.237900E+00   6.237900E+00   6.237900E+00   6.237900E+00   6.237900E+00   6.237900E+00   6.237900E+00   2.318304E+01   2.318304E+01   2.318304E+01   2.318304E+01   2.318304E+01   2.318304E+01   2.318304E+01   2.318304E+01   2.318304E+01   4.394738E+02   4.394738E+02   4.394738E+02   4.394738E+02   4.394738E+02   4.394738E+02   4.394738E+02   1.235755E+02   1.235755E+02   1.235755E+02   1.235755E+02   1.235755E+02   3.488640E+02   3.488640E+02   3.488640E+02   3.488640E+02   4.741567E+02   4.741567E+02   4.741567E+02   7.490328E+02   7.490328E+02   2.520286E+02   2.520286E+02   9.955297E+01   9.955297E+01   9.687287E+01   1.471166E+02   1.041805E+02   1.041805E+02   2.654695E+02   1.250905E+02   3.831306E+02   1.326116E+02   1.557058E+02   5.211996E+01   7.348613E+01   6.267160E+01   2.307517E+01   1.650548E+01   1.064987E+01   2.749362E+01   8.454210E+01   9.825287E+01   7.100954E+01   7.964165E+01   1.492587E+02   1.550325E+02   1.811151E+02   2.610824E+01   4.112530E+01   3.693059E+01   5.856886E+01   1.415967E+02   1.978652E+02   1.390442E+02   1.459448E+02   1.057475E+02   6.032551E+01   2.221885E+01   3.129965E+01   2.447266E+01   3.230366E+01   7.163288E+00   7.822009E+00   1.017169E+01   3.225753E+01   7.045374E+01   7.522601E+01
   2.273715E+01   4.385030E+01   2.422131E+01   3.645335E+01   3.964071E+01   1.148940E+01   3.336638E+01   5.021443E+01   5.789951E+01   4.859542E+01   2.816945E+01   2.764214E+01   5.219787E+01   5.333252E+01   2.753999E+01   3.882940E+01   6.717426E+01   7.284708E+01   1.663241E+02   1.592570E+02   3.579024E+02   2.658248E+02   2.687209E+02   2.229993E+02   1.088660E+02   5.113686E+01   1.446588E+01   7.535635E+00   2.073812E+01   1.369045E+01   1.087179E+01   3.993932E+01   1.406175E+02   3.097786E+02   2.065896E+02   1.488729E+02   2.035093E+01   4.350040E+01   7.952914E+01   6.622824E+01   9.477409E+01   5.711518E+01   5.169018E+01   1.169804E+02   1.131726E+02   1.570979E+02   1.503784E+02   2.463106E+01   5.262700E+01   1.427670E+02   2.531222E+02   1.142788E+02   6.323940E+01   6.183577E+01   4.283300E+01   4.566611E+01   1.983870E+01   4.359737E+01   3.186144E+01   2.286285E+01   1.142328E+01   2.796535E+01   4.939359E+01   5.939276E+01   4.730589E+01   4.692440E+01   6.619276E+01   7.425270E+01   3.135003E+01   3.084916E+01   4.724747E+01   6.600036E+01   5.563792E+01   6.649657E+01   7.739762E+01   2.221091E+02   1.397060E+02   6.039205E+01   1.112671E+02   2.700135E+01   8.230698E+01   1.537901E+02   1.808895E+02   1.333558E+02   1.169871E+02   1.519682E+02   4.408360E+01   8.037961E+01   1.051511E+02   4.922070E+01   4.922070E+01   8.410072E+01   4.569079E+01   4.569079E+01   6.729491E+01   6.983688E+01   6.983688E+01   1.414013E+02   1.414013E+02   1.414013E+02   4.710644E+01   4.710644E+01   4.710644E+01   5.460430E+01   5.460430E+01   5.460430E+01   5.460430E+01   5.460430E+01   4.116971E+01   4.116971E+01   4.116971E+01   4.116971E+01   4.116971E+01   1.443867E+01   1.443867E+01   1.443867E+01   1.443867E+01   1.443867E+01   1.443867E+01   1.443867E+01   8.960368E+00   8.960368E+00   8.960368E+00   8.960368E+00   8.960368E+00   8.960368E+00   8.960368E+00   8.960368E+00   8.960368E+00   8.960368E+00   2.979599E+01   2.979599E+01   2.979599E+01   2.979599E+01   2.979599E+01   2.979599E+01   2.979599E+01   2.979599E+01   2.979599E+01   2.400569E+02   2.400569E+02   2.400569E+02   2.400569E+02   2.400569E+02   2.400569E+02   2.400569E+02   1.263692E+02   1.263692E+02   1.263692E+02   1.263692E+02   1.263692E+02   1.195036E+02   1.195036E+02   1.195036E+02   1.195036E+02   2.765891E+02   2.765891E+02   2.765891E+02   5.004875E+02   5.004875E+02   1.991753E+02   1.991753E+02   1.221903E+02   1.221903E+02   2.306948E+02   1.390754E+02   8.951586E+01   8.951586E+01   1.843840E+02   1.455301E+02   1.569407E+02   1.094377E+02   1.025422E+02   6.858746E+01   5.833642E+01   7.665063E+01   3.832411E+01   1.360318E+01   1.070450E+01   2.944966E+01   7.953971E+01   2.976855E+01   1.144196E+02   1.136324E+02   8.282906E+01   2.548408E+02   2.352868E+02   2.681201E+01   3.316675E+01   3.313965E+01   1.032759E+02   1.367615E+02   1.864927E+02   2.384363E+02   1.628771E+02   9.596976E+01   1.203066E+02   4.982863E+01   2.916976E+01   3.092107E+01   2.750028E+01   6.080469E+00   3.262389E+00   9.143391E+00   2.434157E+01   4.645159E+01   6.095393E+01
   2.981041E+01   4.790559E+01   4.598773E+01   1.683226E+01   2.115911E+01   2.507758E+01   3.082058E+01   1.190464E+02   6.191393E+01   2.500445E+01   2.366829E+01   6.031366E+01   8.328767E+01   4.345789E+01   3.108962E+01   6.275349E+01   1.127347E+02   1.585099E+02   1.340122E+02   3.427130E+02   2.084983E+02   1.997775E+02   3.698856E+02   2.161145E+02   1.956002E+02   9.566285E+01   2.234492E+01   1.073033E+01   1.430341E+01   6.825280E+00   2.604639E+01   6.373775E+01   2.458873E+02   3.068514E+02   1.486720E+02   6.760259E+01   2.187252E+01   3.222716E+01   6.808610E+01   4.730379E+01   6.055984E+01   8.969407E+01   1.231928E+02   1.671154E+02   8.750559E+01   1.893924E+02   1.258195E+02   3.537988E+01   6.433062E+01   1.567767E+02   1.643682E+02   1.533565E+02   8.074652E+01   6.052271E+01   4.982262E+01   1.608665E+01   3.137210E+01   4.649597E+01   1.247254E+01   6.921081E+00   1.688326E+01   5.140170E+01   4.218758E+01   2.400403E+01   2.328113E+01   5.203386E+01   5.329213E+01   8.510789E+01   6.522474E+01   5.012448E+01   3.800267E+01   6.672316E+01   1.023215E+02   6.207107E+01   8.007774E+01   9.839006E+01   1.233039E+02   5.076774E+01   1.193711E+02   5.237579E+01   9.539451E+01   2.083912E+02   1.967706E+02   1.262603E+02   1.864296E+02   2.062017E+02   6.265499E+01   5.021853E+01   1.080107E+02   6.333249E+01   6.333249E+01   4.706767E+01   9.834176E+01   9.834176E+01   9.751187E+01   9.929856E+01   9.929856E+01   1.477976E+02   1.477976E+02   1.477976E+02   4.507579E+01   4.507579E+01   4.507579E+01   4.512125E+01   4.512125E+01   4.512125E+01   4.512125E+01   4.512125E+01   6.657883E+01   6.657883E+01   6.657883E+01   6.657883E+01   6.657883E+01   1.528114E+01   1.528114E+01   1.528114E+01   1.528114E+01   1.528114E+01   1.528114E+01   1.528114E+01   8.833090E+00   8.833090E+00   8.833090E+00   8.833090E+00   8.833090E+00   8.833090E+00   8.833090E+00   8.833090E+00   8.833090E+00   8.833090E+00   3.304643E+01   3.304643E+01   3.304643E+01   3.304643E+01   3.304643E+01   3.304643E+01   3.304643E+01   3.304643E+01   3.304643E+01   1.670675E+02   1.670675E+02   1.670675E+02   1.670675E+02   1.670675E+02   1.670675E+02   1.670675E+02   1.534740E+02   1.534740E+02   1.534740E+02   1.534740E+02   1.534740E+02   2.660281E+02   2.660281E+02   2.660281E+02   2.660281E+02   3.698667E+02   3.698667E+02   3.698667E+02   3.981762E+02   3.981762E+02   1.551100E+02   1.551100E+02   1.184747E+02   1.184747E+02   3.229087E+02   2.096593E+02   1.643807E+02   1.643807E+02   1.366458E+02   1.017829E+02   1.063841E+02   9.862180E+01   8.098859E+01   6.749028E+01   4.613331E+01   5.933136E+01   2.577934E+01   3.209533E+01   1.375870E+01   2.257257E+01   3.471217E+01   1.313862E+01   7.642126E+01   9.354398E+01   1.202206E+02   1.409260E+02   1.920541E+02   4.248754E+01   2.761856E+01   2.666624E+01   2.393158E+02   6.360105E+01   2.873475E+02   3.724633E+02   2.639792E+02   1.430591E+02   7.376304E+01   7.304973E+01   2.115724E+01   3.237700E+01   2.066371E+01   4.832965E+00   5.514343E+00   4.758819E+00   3.924856E+01   4.844607E+01   1.183440E+02
   2.311736E+01   6.157951E+01   4.527060E+01   3.179432E+01   2.601396E+01   2.155205E+01   4.753871E+01   3.223863E+01   2.075938E+01   3.202819E+01   1.426076E+01   2.291032E+01   6.989397E+01   2.012562E+01   3.681412E+01   7.428288E+01   8.082365E+01   6.504714E+01   1.229057E+02   2.321283E+02   1.260885E+02   1.365242E+02   5.005593E+02   1.356318E+02   4.045703E+02   6.234688E+01   1.786929E+01   1.979403E+01   2.251206E+01   9.101979E+00   3.513632E+01   4.913044E+01   1.564754E+02   2.188942E+02   1.670053E+02   7.676672E+01   4.499365E+01   4.194377E+01   9.774926E+01   3.797177E+01   9.957845E+01   1.772663E+02   3.039581E+02   3.112252E+02   1.601042E+02   2.092992E+02   1.315573E+02   5.328355E+01   7.909286E+01   1.052167E+02   4.607440E+01   8.302460E+01   4.738739E+01   5.542555E+01   2.710819E+01   1.070123E+01   2.124072E+01   4.525754E+01   1.642744E+01   1.537718E+01   1.104182E+01   5.057682E+01   4.169427E+01   3.098651E+01   3.663276E+01   1.120729E+02   8.175932E+01   9.826920E+01   1.135671E+02   3.673225E+01   3.217542E+01   4.012766E+01   8.491112E+01   5.087281E+01   7.497669E+01   5.620534E+01   3.215659E+02   7.007880E+01   5.765220E+01   2.168173E+01   1.528267E+02   2.151525E+02   3.226332E+02   1.124169E+02   2.768187E+02   2.094090E+02   1.191838E+02   5.176965E+01   4.167881E+01   5.990830E+01   5.990830E+01   6.761950E+01   7.566054E+01   7.566054E+01   8.460129E+01   9.711398E+01   9.711398E+01   2.144853E+02   2.144853E+02   2.144853E+02   4.320071E+01   4.320071E+01   4.320071E+01   4.320946E+01   4.320946E+01   4.320946E+01   4.320946E+01   4.320946E+01   2.834137E+01   2.834137E+01   2.834137E+01   2.834137E+01   2.834137E+01   2.027884E+01   2.027884E+01   2.027884E+01   2.027884E+01   2.027884E+01   2.027884E+01   2.027884E+01   1.301146E+01   1.301146E+01   1.301146E+01   1.301146E+01   1.301146E+01   1.301146E+01   1.301146E+01   1.301146E+01   1.301146E+01   1.301146E+01   4.823984E+01   4.823984E+01   4.823984E+01   4.823984E+01   4.823984E+01   4.823984E+01   4.823984E+01   4.823984E+01   4.823984E+01   1.001232E+02   1.001232E+02   1.001232E+02   1.001232E+02   1.001232E+02   1.001232E+02   1.001232E+02   1.565008E+02   1.565008E+02   1.565008E+02   1.565008E+02   1.565008E+02   4.406094E+02   4.406094E+02   4.406094E+02   4.406094E+02   2.483889E+02   2.483889E+02   2.483889E+02   2.576935E+02   2.576935E+02   1.470502E+02   1.470502E+02   1.400678E+02   1.400678E+02   1.555038E+02   1.431505E+02   2.194266E+02   2.194266E+02   1.082493E+02   1.547685E+02   6.198837E+01   1.318984E+02   6.164626E+01   9.069292E+01   6.179029E+01   3.146336E+01   2.750481E+01   5.480833E+01   7.332647E+00   2.197140E+01   4.652863E+01   2.383002E+01   1.323456E+02   4.752000E+01   2.273060E+02   9.606425E+01   1.162743E+02   4.695295E+01   3.235411E+01   3.571540E+01   1.240758E+02   8.719973E+01   2.336335E+02   2.726637E+02   1.472904E+02   1.435498E+02   1.282087E+02   5.396270E+01   2.106782E+01   6.921890E+01   2.460754E+01   1.495228E+01   4.696363E+00   5.103908E+00   1.374843E+01   7.496043E+01   1.098976E+02
   2.499502E+01   2.037532E+01   5.573518E+01   4.218575E+01   1.458252E+01   4.694151E+01   5.249525E+01   3.599936E+01   2.693407E+01   6.640157E+01   1.558940E+01   3.471470E+01   4.535691E+01   3.114597E+01   3.922669E+01   8.359374E+01   1.214201E+02   6.252975E+01   1.154925E+02   1.031466E+02   5.820341E+01   6.741685E+01   3.021269E+02   2.869613E+02   3.485439E+02   4.982290E+01   2.409503E+01   1.800008E+01   3.204240E+01   1.688314E+01   1.195384E+02   3.624692E+01   9.528992E+01   1.357098E+02   9.462697E+01   1.171204E+02   4.029148E+01   7.778152E+01   1.427666E+02   9.462019E+01   2.201854E+02   1.424506E+02   2.104740E+02   2.160160E+02   1.485069E+02   1.582362E+02   1.965353E+02   1.056908E+02   8.313994E+01   4.782575E+01   6.418185E+01   4.473959E+01   5.817680E+01   8.202406E+01   5.185880E+01   3.038183E+01   5.819278E+01   3.592669E+01   1.081612E+01   1.881560E+01   2.523489E+01   2.781174E+01   2.419013E+01   4.380231E+01   2.069286E+01   6.461178E+01   1.209220E+02   1.156263E+02   1.876060E+02   4.672779E+01   4.061981E+01   6.412107E+01   2.321868E+02   4.328429E+01   3.657137E+01   5.617468E+01   1.734807E+02   8.858016E+01   6.447139E+01   2.783860E+01   6.594469E+01   1.104834E+02   1.819215E+02   7.070562E+01   1.065993E+02   1.483343E+02   5.852240E+01   3.557500E+01   1.996690E+01   3.851352E+01   3.851352E+01   7.540198E+01   5.355423E+01   5.355423E+01   2.356047E+01   8.239819E+01   8.239819E+01   5.398436E+01   5.398436E+01   5.398436E+01   6.169112E+01   6.169112E+01   6.169112E+01   2.317715E+01   2.317715E+01   2.317715E+01   2.317715E+01   2.317715E+01   1.785866E+01   1.785866E+01   1.785866E+01   1.785866E+01   1.785866E+01   2.101413E+01   2.101413E+01   2.101413E+01   2.101413E+01   2.101413E+01   2.101413E+01   2.101413E+01   3.332006E+01   3.332006E+01   3.332006E+01   3.332006E+01   3.332006E+01   3.332006E+01   3.332006E+01   3.332006E+01   3.332006E+01   3.332006E+01   5.834490E+01   5.834490E+01   5.834490E+01   5.834490E+01   5.834490E+01   5.834490E+01   5.834490E+01   5.834490E+01   5.834490E+01   9.278371E+01   9.278371E+01   9.278371E+01   9.278371E+01   9.278371E+01   9.278371E+01   9.278371E+01   1.216120E+02   1.216120E+02   1.216120E+02   1.216120E+02   1.216120E+02   3.323412E+02   3.323412E+02   3.323412E+02   3.323412E+02   1.539787E+02   1.539787E+02   1.539787E+02   1.240598E+02   1.240598E+02   9.578619E+01   9.578619E+01   3.087056E+02   3.087056E+02   7.647141E+01   9.598332E+01   1.616947E+02   1.616947E+02   6.751863E+01   1.005905E+02   3.992092E+01   7.512668E+01   5.345244E+01   6.605420E+01   2.994432E+01   2.904815E+01   4.480344E+01   5.295302E+01   1.612438E+01   4.458758E+01   7.936134E+01   8.868695E+01   1.515808E+02   7.758909E+01   2.926878E+02   1.132399E+02   7.211165E+01   3.687811E+01   3.460643E+01   2.747046E+01   5.904443E+01   1.097840E+02   9.487868E+01   1.328031E+02   1.111580E+02   7.325806E+01   9.945940E+01   3.282733E+01   1.509732E+01   3.143361E+01   2.564612E+01   8.852736E+00   1.094995E+01   5.206497E+00   2.179127E+01   1.225037E+02   2.367164E+02
   2.201238E+01   2.222370E+01   4.348882E+01   5.020062E+01   2.012688E+01   4.739310E+01   5.585089E+01   3.241206E+01   1.447293E+01   2.532224E+01   1.741736E+01   3.638223E+01   1.653438E+01   4.336620E+01   5.192808E+01   7.460043E+01   1.188882E+02   1.272228E+02   9.709603E+01   1.007320E+02   2.230360E+02   1.350314E+02   2.537940E+02   3.580048E+02   1.795735E+02   7.056447E+01   2.949400E+01   4.570742E+01   5.037259E+01   1.176278E+01   8.269073E+01   5.423339E+01   1.234352E+02   1.004182E+02   1.114807E+02   1.333893E+02   9.467421E+01   1.513957E+02   1.805618E+02   1.046694E+02   1.713498E+02   9.547052E+01   7.474263E+01   8.485173E+01   2.980976E+02   2.619155E+02   2.185596E+02   1.654088E+02   7.348238E+01   3.664402E+01   4.918221E+01   6.818764E+01   9.024614E+01   6.040259E+01   4.955136E+01   2.504036E+01   3.678875E+01   2.711751E+01   1.039539E+01   1.270661E+01   1.409955E+01   3.395831E+01   2.609748E+01   4.139736E+01   2.099439E+01   3.896729E+01   1.126129E+02   1.634939E+02   1.283195E+02   6.441245E+01   4.413038E+01   4.975033E+01   3.552906E+01   5.002061E+01   4.603167E+01   9.613235E+01   1.134207E+02   1.714141E+02   6.050235E+01   4.834907E+01   5.205948E+01   4.304562E+01   1.231610E+02   1.655553E+02   7.668485E+01   8.613963E+01   3.170702E+01   1.534131E+01   1.080276E+01   2.679159E+01   2.679159E+01   2.174249E+01   3.495953E+01   3.495953E+01   3.492873E+01   8.127239E+01   8.127239E+01   3.338096E+01   3.338096E+01   3.338096E+01   4.958744E+01   4.958744E+01   4.958744E+01   9.811502E+00   9.811502E+00   9.811502E+00   9.811502E+00   9.811502E+00   2.207870E+01   2.207870E+01   2.207870E+01   2.207870E+01   2.207870E+01   3.559850E+01   3.559850E+01   3.559850E+01   3.559850E+01   3.559850E+01   3.559850E+01   3.559850E+01   1.081313E+02   1.081313E+02   1.081313E+02   1.081313E+02   1.081313E+02   1.081313E+02   1.081313E+02   1.081313E+02   1.081313E+02   1.081313E+02   9.309957E+01   9.309957E+01   9.309957E+01   9.309957E+01   9.309957E+01   9.309957E+01   9.309957E+01   9.309957E+01   9.309957E+01   1.287700E+02   1.287700E+02   1.287700E+02   1.287700E+02   1.287700E+02   1.287700E+02   1.287700E+02   8.948967E+01   8.948967E+01   8.948967E+01   8.948967E+01   8.948967E+01   4.081345E+02   4.081345E+02   4.081345E+02   4.081345E+02   1.721526E+02   1.721526E+02   1.721526E+02   2.159413E+02   2.159413E+02   1.565237E+02   1.565237E+02   1.316202E+02   1.316202E+02   4.304785E+01   1.254749E+02   1.319760E+02   1.319760E+02   4.408188E+01   4.888919E+01   4.736289E+01   2.605985E+01   3.178156E+01   3.292656E+01   2.901153E+01   3.352118E+01   1.953057E+02   5.549418E+01   3.465598E+01   9.228825E+01   4.572907E+01   1.085547E+02   7.410458E+01   1.112121E+02   2.120431E+02   2.007703E+02   1.497137E+02   5.537147E+01   4.630038E+01   6.554224E+01   5.971673E+01   1.019700E+02   1.120160E+02   1.534599E+02   2.362150E+02   5.246131E+01   4.925488E+01   3.867123E+01   1.811511E+01   2.847024E+01   2.102165E+01   8.269814E+00   4.663433E+00   1.067310E+01   3.464251E+01   1.776462E+02   5.723710E+02