# LPF package for  MODFLOW-2005, generated by Flopy.
        53    -1E+30         0  
         1
         0
   0.000000E+00
         0
         0
INTERNAL               1 (207E15.6) -1 #hk layer 1                    
   1.042993E-01   9.105151E-02   1.266925E-01   1.797367E-01   6.747211E-02   5.669079E-02   3.517167E-02   4.337251E-02   1.788148E-02   3.178257E-02   2.639948E-02   7.243596E-02   3.121018E-02   3.194963E-02   4.032639E-02   5.757403E-02   3.929828E-02   6.979319E-02   5.313120E-02   3.494317E-02   6.583982E-02   3.568739E-02   1.144941E-01   2.210952E-01   8.620499E-01   3.182544E-01   1.853814E-01   1.376495E-01   2.748802E-01   4.736125E-01   8.748927E-01   3.124014E-01   3.001127E-01   8.699930E-02   3.640090E-02   4.553819E-02   4.057768E-02   1.896791E-02   3.576463E-02   1.012158E-01   1.197784E-01   8.540390E-02   7.629501E-02   1.554041E-01   2.123361E-01   4.310574E-01   1.272055E-01   2.868056E-02   3.729519E-02   4.956640E-02   6.518811E-02   9.252740E-02   7.287554E-02   1.558755E-01   2.608775E-01   1.009780E-01   1.653323E-01   1.064260E-01   6.608498E-02   2.704154E-02   2.103912E-02   4.883773E-02   4.276568E-02   2.655747E-02   5.786414E-02   1.198337E-01   8.346459E-02   3.963689E-02   3.955567E-02   4.751511E-02   1.688092E-02   2.057842E-02   1.070781E-02   5.083967E-02   7.826072E-02   8.513750E-02   6.338475E-02   7.513076E-02   7.168942E-02   7.355376E-02   1.205448E-01   2.230604E-01   1.065084E-01   2.195428E-01   1.495764E-01   9.670230E-02   8.413894E-02   4.307969E-02   9.558196E-02   7.748041E-02   7.748041E-02   7.337157E-02   2.542544E-01   2.542544E-01   8.594863E-01   5.362943E-01   5.362943E-01   3.850175E-01   3.850175E-01   3.850175E-01   2.543516E-01   2.543516E-01   2.543516E-01   2.113107E-01   2.113107E-01   2.113107E-01   2.113107E-01   2.113107E-01   2.995373E-02   2.995373E-02   2.995373E-02   2.995373E-02   2.995373E-02   2.713045E-02   2.713045E-02   2.713045E-02   2.713045E-02   2.713045E-02   2.713045E-02   2.713045E-02   1.024496E-01   1.024496E-01   1.024496E-01   1.024496E-01   1.024496E-01   1.024496E-01   1.024496E-01   1.024496E-01   1.024496E-01   1.024496E-01   1.556405E-01   1.556405E-01   1.556405E-01   1.556405E-01   1.556405E-01   1.556405E-01   1.556405E-01   1.556405E-01   1.556405E-01   2.758658E-01   2.758658E-01   2.758658E-01   2.758658E-01   2.758658E-01   2.758658E-01   2.758658E-01   5.474997E-01   5.474997E-01   5.474997E-01   5.474997E-01   5.474997E-01   2.252144E-01   2.252144E-01   2.252144E-01   2.252144E-01   1.085586E-01   1.085586E-01   1.085586E-01   1.346659E-01   1.346659E-01   2.671875E-01   2.671875E-01   2.220868E-01   2.220868E-01   2.132977E-01   1.438787E-01   2.086120E-01   2.086120E-01   2.230705E-01   9.175813E-01   5.770555E-01   3.858003E-01   2.567331E-01   4.169659E-02   1.539915E-02   5.166906E-02   7.820878E-02   4.938217E-02   7.854673E-02   4.960066E-02   7.318550E-02   8.288820E-02   4.980140E-02   9.424899E-02   5.545122E-02   6.662157E-02   1.281610E-01   1.856097E-01   1.999808E-01   1.089362E-01   1.165288E-01   2.531934E-02   4.559931E-02   8.006322E-02   6.962139E-02   6.426871E-02   3.770133E-02   3.372486E-02   2.556672E-02   5.308835E-02   6.556068E-02   4.954227E-02   6.403711E-02   2.483430E-01   1.199133E-01   5.497111E-02   3.947013E-02
   1.047393E-01   1.273617E-01   8.575230E-02   9.881712E-02   4.385982E-02   4.219269E-02   2.811978E-02   3.033439E-02   1.209554E-02   2.749225E-02   3.866422E-02   5.183564E-02   2.061501E-02   2.390226E-02   2.107033E-02   1.071677E-01   7.223031E-02   9.439257E-02   1.037918E-01   4.785507E-02   7.955454E-02   6.507835E-02   1.447818E-01   2.977207E-01   2.408595E-01   3.455566E-01   9.491378E-02   1.979675E-01   1.629428E-01   5.210289E-01   9.675100E-01   4.764716E-01   2.612781E-01   9.469942E-02   2.400305E-02   2.216189E-02   2.369501E-02   3.035193E-02   8.357168E-02   1.328182E-01   9.633388E-02   7.309651E-02   5.638259E-02   3.546187E-01   5.189720E-01   4.737235E-01   1.053692E-01   4.198492E-02   4.444767E-02   4.024465E-02   6.791006E-02   7.346001E-02   4.571018E-02   1.025191E-01   2.526574E-01   9.067148E-02   1.588833E-01   6.436108E-02   9.050602E-02   3.331709E-02   2.767733E-02   4.603105E-02   3.172090E-02   5.667421E-02   8.759651E-02   4.721554E-02   7.501677E-02   6.674358E-02   7.941932E-02   7.105350E-02   2.622332E-02   3.144720E-02   1.419179E-02   2.288870E-02   1.940434E-02   6.432321E-02   7.159393E-02   3.853096E-02   6.656829E-02   9.959563E-02   1.677121E-01   2.826211E-01   1.802172E-01   2.562652E-01   5.825695E-02   7.977030E-02   8.335360E-02   5.637569E-02   1.422925E-01   1.086307E-01   1.086307E-01   2.117109E-01   2.625122E-01   2.625122E-01   1.085698E+00   4.613993E-01   4.613993E-01   3.380210E-01   3.380210E-01   3.380210E-01   4.166103E-01   4.166103E-01   4.166103E-01   8.156192E-02   8.156192E-02   8.156192E-02   8.156192E-02   8.156192E-02   3.915424E-02   3.915424E-02   3.915424E-02   3.915424E-02   3.915424E-02   4.828442E-02   4.828442E-02   4.828442E-02   4.828442E-02   4.828442E-02   4.828442E-02   4.828442E-02   1.023928E-01   1.023928E-01   1.023928E-01   1.023928E-01   1.023928E-01   1.023928E-01   1.023928E-01   1.023928E-01   1.023928E-01   1.023928E-01   1.216987E-01   1.216987E-01   1.216987E-01   1.216987E-01   1.216987E-01   1.216987E-01   1.216987E-01   1.216987E-01   1.216987E-01   2.425812E-01   2.425812E-01   2.425812E-01   2.425812E-01   2.425812E-01   2.425812E-01   2.425812E-01   4.169369E-01   4.169369E-01   4.169369E-01   4.169369E-01   4.169369E-01   1.342536E-01   1.342536E-01   1.342536E-01   1.342536E-01   7.680936E-02   7.680936E-02   7.680936E-02   2.308832E-01   2.308832E-01   1.400074E-01   1.400074E-01   2.038291E-01   2.038291E-01   2.278944E-01   1.870736E-01   1.238149E-01   1.238149E-01   3.319111E-01   6.131516E-01   4.533441E-01   5.329564E-01   1.070262E-01   5.221866E-02   2.385079E-02   4.591317E-02   8.789118E-02   4.199565E-02   7.649397E-02   4.509382E-02   7.817512E-02   1.393242E-01   8.030376E-02   9.541983E-02   5.100891E-02   9.978446E-02   1.415697E-01   1.665602E-01   3.897198E-01   8.593565E-02   1.553430E-01   3.948428E-02   4.717432E-02   7.873126E-02   4.739617E-02   3.644088E-02   5.751560E-02   3.356747E-02   3.978536E-02   5.382061E-02   3.559589E-02   2.479483E-02   7.082453E-02   2.821376E-01   1.932367E-01   9.973222E-02   4.581004E-02
   8.753724E-02   7.928760E-02   1.047094E-01   1.236274E-01   5.369306E-02   8.290188E-02   2.452875E-02   1.343101E-02   2.217233E-02   2.523427E-02   3.855844E-02   6.762637E-02   3.033308E-02   1.562895E-02   3.307728E-02   1.745228E-01   1.722161E-01   2.161027E-01   1.708164E-01   6.486148E-02   8.572266E-02   7.682119E-02   8.564479E-02   2.114190E-01   1.863872E-01   1.616441E-01   1.468896E-01   1.711144E-01   9.198960E-02   4.412311E-01   4.798269E-01   4.068373E-01   2.388400E-01   1.514576E-01   4.813289E-02   2.327243E-02   1.647740E-02   3.784692E-02   2.166624E-01   1.169002E-01   1.599174E-01   6.356037E-02   9.683073E-02   1.988292E-01   3.181525E-01   2.957340E-01   1.321513E-01   3.136440E-02   2.851833E-02   6.183967E-02   7.931620E-02   4.254096E-02   5.133694E-02   7.039803E-02   2.104582E-01   6.238025E-02   1.093866E-01   8.092136E-02   6.567965E-02   3.365330E-02   2.536140E-02   4.189175E-02   2.081659E-02   4.129117E-02   6.313174E-02   8.629595E-02   8.393655E-02   1.431889E-01   1.667306E-01   1.029838E-01   2.605533E-02   2.044967E-02   2.731589E-02   2.888212E-02   1.784080E-02   6.529729E-02   5.309591E-02   5.868650E-02   3.769829E-02   9.128784E-02   2.570516E-01   1.019168E-01   2.205873E-01   2.159327E-01   7.921860E-02   8.409466E-02   1.018043E-01   7.207918E-02   1.478682E-01   1.927363E-01   1.927363E-01   1.520596E-01   2.983670E-01   2.983670E-01   7.156938E-01   8.666974E-01   8.666974E-01   3.056381E-01   3.056381E-01   3.056381E-01   1.277417E-01   1.277417E-01   1.277417E-01   4.989725E-02   4.989725E-02   4.989725E-02   4.989725E-02   4.989725E-02   1.867275E-02   1.867275E-02   1.867275E-02   1.867275E-02   1.867275E-02   3.737405E-02   3.737405E-02   3.737405E-02   3.737405E-02   3.737405E-02   3.737405E-02   3.737405E-02   1.453918E-01   1.453918E-01   1.453918E-01   1.453918E-01   1.453918E-01   1.453918E-01   1.453918E-01   1.453918E-01   1.453918E-01   1.453918E-01   2.364687E-01   2.364687E-01   2.364687E-01   2.364687E-01   2.364687E-01   2.364687E-01   2.364687E-01   2.364687E-01   2.364687E-01   3.033719E-01   3.033719E-01   3.033719E-01   3.033719E-01   3.033719E-01   3.033719E-01   3.033719E-01   4.121563E-01   4.121563E-01   4.121563E-01   4.121563E-01   4.121563E-01   1.754095E-01   1.754095E-01   1.754095E-01   1.754095E-01   1.235567E-01   1.235567E-01   1.235567E-01   4.462968E-01   4.462968E-01   1.227158E-01   1.227158E-01   1.281651E-01   1.281651E-01   3.320792E-01   1.795765E-01   2.038291E-01   2.038291E-01   3.292325E-01   4.849780E-01   2.955216E-01   3.311615E-01   1.212284E-01   4.811443E-02   4.379881E-02   6.180686E-02   7.528830E-02   8.102326E-02   7.683246E-02   6.481365E-02   1.319869E-01   7.216661E-02   5.298971E-02   9.782039E-02   5.970159E-02   1.102149E-01   1.311118E-01   2.350298E-01   2.185307E-01   3.596271E-02   5.280094E-02   7.119223E-02   1.143235E-01   4.433790E-02   3.092616E-02   3.118786E-02   4.211916E-02   4.316985E-02   5.718499E-02   5.580572E-02   4.078946E-02   3.557017E-02   4.851987E-02   2.338948E-01   3.116465E-01   7.841153E-02   5.931002E-02
   4.635629E-02   5.241904E-02   8.702412E-02   6.104541E-02   2.525353E-02   2.552980E-02   2.631568E-02   9.157075E-03   1.682474E-02   3.460111E-02   2.474209E-02   3.557952E-02   1.556011E-02   4.221119E-02   4.991707E-02   1.302952E-01   1.373856E-01   1.394743E-01   1.063719E-01   4.222298E-02   3.082248E-02   1.172111E-01   1.599248E-01   1.867835E-01   1.316618E-01   1.074032E-01   1.040393E-01   1.309549E-01   1.507213E-01   2.025395E-01   3.982182E-01   3.613018E-01   1.204250E-01   7.145951E-02   4.296855E-02   1.444616E-02   2.909605E-02   4.892594E-02   2.488113E-01   1.020247E-01   7.169107E-02   5.216688E-02   6.241011E-02   1.190566E-01   2.856050E-01   1.705017E-01   1.354680E-01   1.481747E-02   2.095635E-02   1.166545E-01   5.653015E-02   4.304010E-02   4.381393E-02   1.423421E-01   1.518577E-01   1.224635E-01   7.472924E-02   6.316708E-02   6.262559E-02   5.114777E-02   4.554685E-02   3.628771E-02   5.123222E-02   4.139911E-02   3.103306E-02   7.476006E-02   2.428971E-02   8.908045E-02   1.813539E-01   1.207253E-01   3.332775E-02   3.529602E-02   7.470679E-02   4.049079E-02   3.024660E-02   8.839105E-02   1.122988E-01   4.447508E-02   8.689664E-02   1.190011E-01   4.673121E-01   2.822210E-01   3.083507E-01   1.327478E-01   1.418581E-01   2.991986E-02   8.719775E-02   8.719756E-02   8.874973E-02   1.093394E-01   1.093394E-01   5.813308E-02   3.516843E-01   3.516843E-01   1.157406E+00   5.436116E-01   5.436116E-01   2.703078E-01   2.703078E-01   2.703078E-01   1.916238E-01   1.916238E-01   1.916238E-01   6.400277E-02   6.400277E-02   6.400277E-02   6.400277E-02   6.400277E-02   1.402625E-02   1.402625E-02   1.402625E-02   1.402625E-02   1.402625E-02   5.181288E-02   5.181288E-02   5.181288E-02   5.181288E-02   5.181288E-02   5.181288E-02   5.181288E-02   2.056499E-01   2.056499E-01   2.056499E-01   2.056499E-01   2.056499E-01   2.056499E-01   2.056499E-01   2.056499E-01   2.056499E-01   2.056499E-01   1.862637E-01   1.862637E-01   1.862637E-01   1.862637E-01   1.862637E-01   1.862637E-01   1.862637E-01   1.862637E-01   1.862637E-01   4.932254E-01   4.932254E-01   4.932254E-01   4.932254E-01   4.932254E-01   4.932254E-01   4.932254E-01   2.083275E-01   2.083275E-01   2.083275E-01   2.083275E-01   2.083275E-01   5.909644E-01   5.909644E-01   5.909644E-01   5.909644E-01   1.649304E-01   1.649304E-01   1.649304E-01   2.197924E-01   2.197924E-01   1.949250E-01   1.949250E-01   1.393342E-01   1.393342E-01   6.232235E-01   3.040735E-01   2.966827E-01   2.966827E-01   4.063160E-01   3.847030E-01   4.215519E-01   8.344326E-01   2.998134E-01   1.096927E-01   5.432053E-02   7.588169E-02   8.881356E-02   6.449328E-02   1.529031E-01   1.341365E-01   2.516188E-01   1.450749E-01   6.898889E-02   1.845794E-01   8.216337E-02   1.100806E-01   1.081525E-01   2.621237E-01   5.392300E-02   1.055797E-01   6.328063E-02   7.942716E-02   1.337089E-01   1.813857E-02   3.106855E-02   3.916097E-02   7.088862E-02   4.765689E-02   5.886963E-02   1.040118E-01   4.562072E-02   7.122819E-02   4.442159E-02   2.424030E-01   4.178122E-01   1.149187E-01   7.787745E-02
   3.561429E-02   6.892332E-02   3.276120E-02   3.435106E-02   3.825864E-02   1.548138E-02   1.311594E-02   2.676445E-02   3.468664E-02   4.138618E-02   2.720616E-02   3.744809E-02   4.472720E-02   6.220803E-02   8.058028E-02   1.097259E-01   1.234776E-01   4.637637E-01   1.267336E-01   8.462618E-02   3.123414E-02   9.166689E-02   1.322345E-01   1.070417E-01   4.109125E-02   7.315327E-02   1.065809E-01   2.136419E-01   1.870347E-01   1.673971E-01   2.584735E-01   3.433451E-01   1.385958E-01   9.453095E-02   3.269394E-02   5.633732E-03   6.156320E-02   5.090528E-02   2.554383E-01   1.350772E-01   1.448739E-01   5.698418E-02   5.726826E-02   9.032127E-02   1.534660E-01   1.783812E-01   8.918515E-02   1.444821E-02   3.315878E-02   1.133323E-01   1.342300E-01   4.502387E-02   5.860222E-02   1.423851E-01   1.768753E-01   1.180827E-01   4.844947E-02   7.621668E-02   4.928154E-02   4.874673E-02   1.275549E-02   2.694783E-02   3.829965E-02   5.855639E-02   2.556265E-02   5.568967E-02   3.681846E-02   5.256118E-02   1.282818E-01   1.248404E-01   4.255095E-02   2.570938E-02   4.020830E-02   8.374716E-02   1.189041E-01   5.700687E-02   4.800645E-02   5.595823E-02   9.012245E-02   2.873425E-01   3.375665E-01   2.938774E-01   2.894050E-01   3.622549E-01   9.800617E-02   3.434891E-02   1.034612E-01   8.187044E-02   3.823804E-02   1.148163E-01   1.148163E-01   9.809870E-02   3.059769E-01   3.059769E-01   7.172597E-01   1.284905E+00   1.284905E+00   4.130713E-01   4.130713E-01   4.130713E-01   1.472911E-01   1.472911E-01   1.472911E-01   3.949000E-02   3.949000E-02   3.949000E-02   3.949000E-02   3.949000E-02   1.942227E-02   1.942227E-02   1.942227E-02   1.942227E-02   1.942227E-02   3.156476E-02   3.156476E-02   3.156476E-02   3.156476E-02   3.156476E-02   3.156476E-02   3.156476E-02   1.387417E-01   1.387417E-01   1.387417E-01   1.387417E-01   1.387417E-01   1.387417E-01   1.387417E-01   1.387417E-01   1.387417E-01   1.387417E-01   1.213730E-01   1.213730E-01   1.213730E-01   1.213730E-01   1.213730E-01   1.213730E-01   1.213730E-01   1.213730E-01   1.213730E-01   2.026202E-01   2.026202E-01   2.026202E-01   2.026202E-01   2.026202E-01   2.026202E-01   2.026202E-01   3.240322E-01   3.240322E-01   3.240322E-01   3.240322E-01   3.240322E-01   2.317934E-01   2.317934E-01   2.317934E-01   2.317934E-01   2.089530E-01   2.089530E-01   2.089530E-01   2.043381E-01   2.043381E-01   1.589428E-01   1.589428E-01   2.022300E-01   2.022300E-01   4.495938E-01   7.466750E-01   2.559606E-01   2.559606E-01   2.508573E-01   3.317285E-01   4.934187E-01   5.050396E-01   3.242874E-01   2.486935E-01   8.703437E-02   8.413612E-02   1.133885E-01   1.953937E-01   1.746071E-01   3.265765E-01   2.541812E-01   1.732028E-01   8.320223E-02   1.389577E-01   1.453196E-01   1.105564E-01   6.015266E-02   1.910381E-01   1.619193E-01   8.978178E-02   4.984999E-02   7.444707E-02   3.858625E-02   2.093634E-02   2.490800E-02   2.354489E-02   1.298476E-01   5.410492E-02   1.177835E-01   7.979459E-02   1.424481E-01   6.941149E-02   3.261920E-02   1.141406E-01   3.648059E-01   1.201144E-01   7.806450E-02
   2.168241E-02   1.354155E-02   2.788786E-02   1.705771E-02   1.278100E-02   9.322292E-03   7.265516E-03   2.587168E-02   5.858136E-02   7.031229E-02   2.143983E-02   3.164620E-02   2.405509E-02   2.959202E-02   6.310862E-02   1.495132E-01   2.325826E-01   4.911816E-01   1.302565E-01   1.953366E-01   5.917730E-02   1.131592E-01   1.195140E-01   1.446079E-01   6.021844E-02   1.193547E-01   1.414885E-01   2.880382E-01   1.185925E-01   1.078083E-01   2.077780E-01   3.512053E-01   3.044168E-01   1.103829E-01   3.624053E-02   7.539318E-03   2.019522E-02   3.505941E-02   3.089446E-01   2.271039E-01   8.068766E-02   8.588423E-02   6.719983E-02   1.540644E-01   1.250494E-01   2.058447E-01   9.868473E-02   2.383323E-02   5.504444E-02   4.005851E-02   3.974812E-02   7.769982E-02   4.374001E-02   3.932375E-02   6.695706E-02   1.434276E-01   4.415907E-02   2.202957E-02   2.671575E-02   2.939876E-02   8.433647E-03   3.227063E-02   4.322125E-02   3.591613E-02   2.664691E-02   9.263831E-02   5.978099E-02   1.041928E-01   1.188279E-01   2.027525E-01   6.718077E-02   1.386936E-02   2.027678E-02   1.275581E-01   9.299134E-02   3.083147E-02   2.867655E-02   5.777273E-02   4.205866E-02   1.289448E-01   3.638609E-01   4.911235E-01   4.539239E-01   2.859837E-01   1.188798E-01   4.775302E-02   1.562061E-01   1.411699E-01   3.295930E-02   4.672022E-02   4.672022E-02   1.622277E-01   3.950495E-01   3.950495E-01   4.492149E-01   8.552555E-01   8.552555E-01   2.846225E-01   2.846225E-01   2.846225E-01   6.018637E-02   6.018637E-02   6.018637E-02   4.006189E-02   4.006189E-02   4.006189E-02   4.006189E-02   4.006189E-02   4.183334E-02   4.183334E-02   4.183334E-02   4.183334E-02   4.183334E-02   1.074517E-01   1.074517E-01   1.074517E-01   1.074517E-01   1.074517E-01   1.074517E-01   1.074517E-01   1.246826E-01   1.246826E-01   1.246826E-01   1.246826E-01   1.246826E-01   1.246826E-01   1.246826E-01   1.246826E-01   1.246826E-01   1.246826E-01   2.395230E-01   2.395230E-01   2.395230E-01   2.395230E-01   2.395230E-01   2.395230E-01   2.395230E-01   2.395230E-01   2.395230E-01   1.209367E-01   1.209367E-01   1.209367E-01   1.209367E-01   1.209367E-01   1.209367E-01   1.209367E-01   5.570811E-01   5.570811E-01   5.570811E-01   5.570811E-01   5.570811E-01   3.344673E-01   3.344673E-01   3.344673E-01   3.344673E-01   2.394433E-01   2.394433E-01   2.394433E-01   1.072257E-01   1.072257E-01   1.094300E-01   1.094300E-01   1.992443E-01   1.992443E-01   3.387562E-01   2.782566E-01   5.548434E-01   5.548434E-01   9.260199E-01   4.158236E-01   3.126321E-01   5.440117E-01   2.733397E-01   2.718915E-01   7.111609E-02   1.232951E-01   1.558026E-01   4.618707E-01   1.515761E-01   3.220828E-01   1.218608E-01   2.159780E-01   8.453473E-02   1.522536E-01   1.144578E-01   1.639056E-01   5.712973E-02   5.112418E-02   1.263769E-01   8.191315E-02   4.242555E-02   5.306045E-02   2.521363E-02   2.193810E-02   2.464246E-02   3.544926E-02   1.111657E-01   5.725059E-02   1.242350E-01   1.328049E-01   1.947110E-01   9.432834E-02   2.503650E-02   5.676924E-02   1.913687E-01   6.100667E-02   5.726226E-02
   4.435000E-02   1.677898E-02   2.006025E-02   2.122510E-02   2.790868E-02   2.306045E-02   2.457746E-02   5.293618E-02   6.663790E-02   6.706197E-02   4.905413E-02   3.645135E-02   4.751293E-02   3.805265E-02   1.117933E-01   2.212332E-01   1.642189E-01   1.751988E-01   1.330472E-01   7.155354E-02   3.659547E-02   6.193870E-02   1.347879E-01   1.938838E-01   2.663913E-02   9.522166E-02   7.224149E-02   1.768383E-01   9.217677E-02   2.194510E-02   1.059376E-01   2.401525E-01   3.229347E-01   1.040339E-01   2.835174E-02   6.499771E-03   2.080002E-02   6.573430E-02   3.094288E-01   6.063792E-02   7.406912E-02   1.512458E-01   7.793368E-02   1.622666E-01   1.610623E-01   3.508838E-01   7.807833E-02   3.979137E-02   7.698164E-02   3.354392E-02   4.106384E-02   1.389240E-01   6.972939E-02   5.911409E-02   5.106068E-02   8.363793E-02   3.512074E-02   1.702367E-02   1.995668E-02   1.268113E-02   1.380592E-02   4.001155E-02   3.383185E-02   7.731413E-02   3.744183E-02   1.222432E-01   6.099869E-02   2.596389E-01   1.446379E-01   1.505204E-01   9.073158E-02   2.654693E-02   2.224945E-02   7.771945E-02   1.198422E-01   4.752646E-02   3.143378E-02   3.110397E-02   5.700298E-02   1.706466E-01   1.713632E-01   3.104831E-01   3.979468E-01   2.865449E-01   6.284723E-02   9.065878E-02   1.109770E-01   3.281788E-01   9.032810E-02   1.290432E-01   1.290432E-01   2.013950E-01   4.618321E-01   4.618321E-01   4.116924E-01   5.902773E-01   5.902773E-01   2.132919E-01   2.132919E-01   2.132919E-01   3.587155E-02   3.587155E-02   3.587155E-02   2.223199E-02   2.223199E-02   2.223199E-02   2.223199E-02   2.223199E-02   2.997651E-02   2.997651E-02   2.997651E-02   2.997651E-02   2.997651E-02   1.621387E-01   1.621387E-01   1.621387E-01   1.621387E-01   1.621387E-01   1.621387E-01   1.621387E-01   1.223533E-01   1.223533E-01   1.223533E-01   1.223533E-01   1.223533E-01   1.223533E-01   1.223533E-01   1.223533E-01   1.223533E-01   1.223533E-01   1.744447E-01   1.744447E-01   1.744447E-01   1.744447E-01   1.744447E-01   1.744447E-01   1.744447E-01   1.744447E-01   1.744447E-01   2.162936E-01   2.162936E-01   2.162936E-01   2.162936E-01   2.162936E-01   2.162936E-01   2.162936E-01   3.037680E-01   3.037680E-01   3.037680E-01   3.037680E-01   3.037680E-01   2.008848E-01   2.008848E-01   2.008848E-01   2.008848E-01   2.432816E-01   2.432816E-01   2.432816E-01   8.800130E-02   8.800130E-02   8.266871E-02   8.266871E-02   8.661892E-02   8.661892E-02   2.384370E-01   2.365361E-01   2.589829E-01   2.589829E-01   5.042410E-01   4.759362E-01   2.295611E-01   2.129940E-01   6.218442E-01   2.841480E-01   1.911183E-01   2.035416E-01   9.136286E-02   1.546056E-01   2.464610E-01   3.486561E-01   1.479222E-01   9.802365E-02   7.356922E-02   1.112034E-01   1.195849E-01   1.990601E-01   3.463561E-02   2.473302E-02   5.398669E-02   7.447090E-02   4.500054E-02   5.102929E-02   4.590256E-02   3.538473E-02   4.144182E-02   1.611035E-01   1.244667E-01   1.088925E-01   7.575011E-02   2.792860E-01   2.188414E-01   8.046015E-02   3.065353E-02   4.282596E-02   1.173927E-01   4.605240E-02   4.697382E-02
   6.850050E-02   2.270747E-02   1.668894E-02   1.315433E-02   1.531541E-02   3.011593E-02   2.839905E-02   2.938779E-02   5.366608E-02   4.430042E-02   4.418002E-02   3.969498E-02   6.937248E-02   5.261353E-02   1.098678E-01   1.000783E-01   1.365491E-01   1.097573E-01   6.050823E-02   7.964236E-02   5.234128E-02   3.531621E-02   9.085727E-02   7.960860E-02   4.338294E-02   8.961479E-02   6.188396E-02   1.463539E-01   7.490011E-02   4.297114E-02   6.852028E-02   7.168797E-02   2.128265E-01   2.917064E-01   3.307700E-02   5.576216E-03   1.979720E-02   4.169037E-02   1.610227E-01   2.052242E-02   5.136374E-02   6.673071E-02   8.496331E-02   2.807170E-01   1.329418E-01   2.061804E-01   5.679536E-02   3.622101E-02   1.043734E-01   6.338657E-02   4.022522E-02   6.708196E-02   3.907333E-02   6.014886E-02   2.250480E-02   4.489526E-02   1.636923E-02   9.861108E-03   7.017754E-03   9.476651E-03   2.117857E-02   1.661889E-01   8.071525E-02   5.577597E-02   6.936499E-02   7.849596E-02   5.257431E-02   1.326552E-01   1.969853E-01   4.220258E-01   5.576008E-02   2.346300E-02   4.064939E-02   6.829023E-02   6.475368E-02   3.572942E-02   2.412532E-02   4.247433E-02   1.240010E-01   1.933078E-01   1.627453E-01   2.289022E-01   1.179244E-01   2.006910E-01   1.781650E-01   8.871502E-02   1.144014E-01   1.093671E-01   3.694908E-02   1.317133E-01   1.317133E-01   1.263866E-01   2.732542E-01   2.732542E-01   2.400440E-01   4.878955E-01   4.878955E-01   4.547243E-01   4.547243E-01   4.547243E-01   2.021264E-02   2.021264E-02   2.021264E-02   2.117847E-02   2.117847E-02   2.117847E-02   2.117847E-02   2.117847E-02   4.758336E-02   4.758336E-02   4.758336E-02   4.758336E-02   4.758336E-02   1.872436E-01   1.872436E-01   1.872436E-01   1.872436E-01   1.872436E-01   1.872436E-01   1.872436E-01   2.090761E-01   2.090761E-01   2.090761E-01   2.090761E-01   2.090761E-01   2.090761E-01   2.090761E-01   2.090761E-01   2.090761E-01   2.090761E-01   1.802501E-01   1.802501E-01   1.802501E-01   1.802501E-01   1.802501E-01   1.802501E-01   1.802501E-01   1.802501E-01   1.802501E-01   2.359291E-01   2.359291E-01   2.359291E-01   2.359291E-01   2.359291E-01   2.359291E-01   2.359291E-01   1.689310E-01   1.689310E-01   1.689310E-01   1.689310E-01   1.689310E-01   1.391039E-01   1.391039E-01   1.391039E-01   1.391039E-01   1.873710E-01   1.873710E-01   1.873710E-01   8.203565E-02   8.203565E-02   8.265318E-02   8.265318E-02   1.147016E-01   1.147016E-01   9.872698E-02   1.924629E-01   3.021958E-01   3.021958E-01   4.779575E-01   3.710322E-01   3.214919E-01   4.320840E-01   3.125034E-01   5.698092E-01   3.087360E-01   1.376482E-01   4.632632E-02   5.182701E-02   1.545544E-01   1.546614E-01   7.261789E-02   9.515103E-02   4.501136E-02   9.026035E-02   2.310830E-01   1.811526E-01   2.362201E-02   4.032948E-02   5.364521E-02   5.307256E-02   3.478184E-02   1.067038E-01   6.915555E-02   9.028302E-02   1.106380E-01   1.105172E-01   1.210713E-01   1.450814E-01   1.729901E-01   3.412155E-01   3.509631E-01   7.741007E-02   4.044093E-02   2.615957E-02   6.532297E-02   3.737450E-02   6.228019E-02
   6.160958E-02   4.420787E-02   3.997067E-02   5.550629E-02   4.018030E-02   2.956202E-02   5.966187E-02   9.837429E-02   3.510978E-02   2.087095E-02   4.146755E-02   2.735525E-02   7.119083E-02   4.543201E-02   6.337638E-02   9.761873E-02   4.169674E-01   1.152304E-01   6.289137E-02   6.945290E-02   4.678881E-02   4.073933E-02   1.597356E-01   1.391637E-01   7.030464E-02   7.729931E-02   4.566265E-02   1.026472E-01   6.874620E-02   4.487979E-02   7.474757E-02   6.267729E-02   7.427088E-02   1.328252E-01   1.441149E-02   4.993864E-03   1.460440E-02   2.250433E-02   1.122500E-01   2.514224E-02   6.349123E-02   6.268584E-02   1.193465E-01   1.576304E-01   1.255645E-01   1.213820E-01   8.275909E-02   5.870041E-02   1.087996E-01   4.463452E-02   1.162500E-01   5.999178E-02   3.605713E-02   4.597761E-02   1.373949E-02   4.249422E-02   1.155166E-02   1.104882E-02   9.316235E-03   1.945093E-02   1.583397E-02   1.184146E-01   2.699515E-01   5.363651E-02   1.138787E-01   7.710600E-02   8.687803E-02   1.529335E-01   1.356439E-01   3.000972E-01   9.119950E-02   3.238621E-02   5.703869E-02   8.683160E-02   2.757560E-02   2.945708E-02   2.015287E-02   6.292564E-02   7.353226E-02   2.301651E-01   6.941779E-02   1.177470E-01   1.368512E-01   1.423353E-01   1.200415E-01   8.611125E-02   9.127963E-02   8.746219E-02   4.560518E-02   8.533353E-02   8.533353E-02   1.436104E-01   2.776361E-01   2.776361E-01   1.928660E-01   1.540564E-01   1.540564E-01   8.070882E-02   8.070882E-02   8.070882E-02   3.304496E-02   3.304496E-02   3.304496E-02   5.930855E-02   5.930855E-02   5.930855E-02   5.930855E-02   5.930855E-02   8.603036E-02   8.603036E-02   8.603036E-02   8.603036E-02   8.603036E-02   8.958028E-02   8.958028E-02   8.958028E-02   8.958028E-02   8.958028E-02   8.958028E-02   8.958028E-02   6.475029E-02   6.475029E-02   6.475029E-02   6.475029E-02   6.475029E-02   6.475029E-02   6.475029E-02   6.475029E-02   6.475029E-02   6.475029E-02   2.233260E-01   2.233260E-01   2.233260E-01   2.233260E-01   2.233260E-01   2.233260E-01   2.233260E-01   2.233260E-01   2.233260E-01   1.933612E-01   1.933612E-01   1.933612E-01   1.933612E-01   1.933612E-01   1.933612E-01   1.933612E-01   1.696079E-01   1.696079E-01   1.696079E-01   1.696079E-01   1.696079E-01   1.733307E-01   1.733307E-01   1.733307E-01   1.733307E-01   1.690988E-01   1.690988E-01   1.690988E-01   1.590476E-01   1.590476E-01   5.821654E-02   5.821654E-02   8.370866E-02   8.370866E-02   7.466279E-02   2.078638E-01   2.935994E-01   2.935994E-01   1.427243E+00   6.177697E-01   1.660795E-01   1.137637E-01   2.132728E-01   6.559957E-01   5.557234E-01   7.993076E-02   1.654005E-01   5.572479E-02   1.159783E-01   1.555113E-01   4.767200E-02   1.078648E-01   1.079025E-01   1.504114E-01   2.032013E-01   1.274569E-01   2.328942E-02   8.945207E-02   1.262159E-01   1.037073E-01   4.565785E-02   6.602837E-02   6.606641E-02   1.792897E-01   2.362404E-01   2.416590E-01   2.179214E-01   1.197562E-01   1.255464E-01   3.188128E-01   1.731324E-01   1.236463E-01   8.014467E-02   3.805973E-02   5.579063E-02   3.873139E-02   6.623584E-02