# LPF package for  MODFLOW-2005, generated by Flopy.
        53    -1E+30         0  
         1
         0
   0.000000E+00
         0
         0
INTERNAL               1 (207E15.6) -1 #hk layer 1                    
   1.585774E+02   2.486852E+02   1.471205E+02   5.320846E+01   5.288690E+01   1.218890E+02   1.405578E+02   6.611938E+01   6.763620E+01   3.637302E+01   1.550417E+01   5.192211E+01   3.273071E+01   2.508595E+01   3.587982E+01   7.235121E+01   2.222592E+01   1.630067E+01   1.204508E+01   3.143522E+01   6.377481E+01   7.829079E+01   3.697786E+01   4.263757E+02   9.490867E+02   3.569508E+02   6.066210E+02   2.217021E+02   1.123578E+02   1.606660E+02   7.830004E+01   2.071887E+01   6.188624E+01   1.081342E+02   1.562747E+02   8.479038E+01   1.242711E+01   2.775467E+01   9.858616E+01   5.992194E+01   5.930698E+01   4.356327E+01   4.632529E+01   1.047058E+02   5.285077E+01   2.597564E+01   4.378306E+01   8.911706E+01   4.197865E+01   7.947792E+01   3.018637E+01   2.726542E+01   4.068240E+01   6.784380E+01   8.827136E+01   2.347166E+02   2.324114E+02   9.410812E+01   4.772436E+01   6.841835E+01   2.016529E+02   1.275991E+02   2.549139E+02   2.366164E+02   1.573704E+02   1.476977E+02   1.212206E+02   1.834307E+01   1.696395E+01   2.848550E+01   2.771945E+01   2.776565E+01   2.196159E+01   1.303688E+01   2.442033E+01   3.013229E+01   3.203661E+01   8.336623E+01   9.439322E+01   6.995217E+01   4.558485E+01   3.816901E+01   8.233733E+01   1.038938E+02   1.121925E+02   1.421465E+02   1.089412E+02   1.305324E+02   1.039511E+02   5.230084E+01   5.230084E+01   9.084665E+01   2.517495E+02   2.517495E+02   1.677790E+02   1.964492E+02   1.964492E+02   1.630589E+02   1.630589E+02   1.630589E+02   2.309612E+02   2.309612E+02   2.309612E+02   3.512106E+02   3.512106E+02   3.512106E+02   3.512106E+02   3.512106E+02   3.043465E+02   3.043465E+02   3.043465E+02   3.043465E+02   3.043465E+02   1.677503E+02   1.677503E+02   1.677503E+02   1.677503E+02   1.677503E+02   1.677503E+02   1.677503E+02   1.122729E+02   1.122729E+02   1.122729E+02   1.122729E+02   1.122729E+02   1.122729E+02   1.122729E+02   1.122729E+02   1.122729E+02   1.122729E+02   8.603371E+01   8.603371E+01   8.603371E+01   8.603371E+01   8.603371E+01   8.603371E+01   8.603371E+01   8.603371E+01   8.603371E+01   1.021095E+02   1.021095E+02   1.021095E+02   1.021095E+02   1.021095E+02   1.021095E+02   1.021095E+02   9.131578E+01   9.131578E+01   9.131578E+01   9.131578E+01   9.131578E+01   3.039786E+01   3.039786E+01   3.039786E+01   3.039786E+01   1.895629E+01   1.895629E+01   1.895629E+01   2.398870E+01   2.398870E+01   3.514969E+01   3.514969E+01   5.207845E+01   5.207845E+01   1.368064E+02   9.130941E+01   8.153290E+01   8.153290E+01   8.679507E+01   7.871788E+01   1.286460E+01   1.460920E+01   2.324062E+01   1.536917E+01   4.446634E+01   6.225225E+01   1.851494E+02   1.046806E+02   6.778315E+01   6.240125E+01   6.218662E+01   1.715190E+02   9.334941E+01   1.983836E+02   1.883303E+02   5.108588E+01   4.991008E+01   5.552604E+01   6.207329E+01   2.859092E+01   6.232099E+01   9.369912E+01   7.375073E+01   7.038934E+01   8.506959E+01   3.997393E+01   4.311557E+01   8.607330E+01   4.633212E+01   4.590953E+01   2.737899E+01   4.386668E+00   7.327400E+00   1.207330E+01   3.272091E+01   3.433833E+01   2.869872E+01
   1.821160E+02   2.430933E+02   1.408062E+02   6.862123E+01   3.295005E+01   4.216038E+01   6.807135E+01   5.156005E+01   6.659407E+01   3.791972E+01   2.439470E+01   5.627601E+01   3.190101E+01   2.392807E+01   3.617112E+01   3.339413E+01   1.326566E+01   1.618658E+01   2.665749E+01   6.547131E+01   9.059236E+01   6.604713E+01   4.789806E+01   5.232347E+02   4.889818E+02   7.301348E+02   6.907932E+02   1.505495E+02   1.136904E+02   9.811138E+01   3.414439E+01   1.467929E+01   4.268431E+01   5.058794E+01   8.537679E+01   1.106480E+02   4.190174E+01   3.950726E+01   7.452552E+01   4.532542E+01   9.252016E+01   5.446238E+01   8.891959E+01   1.591590E+02   4.625537E+01   2.727900E+01   7.565134E+01   8.037727E+01   4.540073E+01   1.007844E+02   5.761008E+01   8.188471E+01   6.189463E+01   7.665181E+01   5.031486E+01   2.635330E+02   1.999633E+02   1.074885E+02   7.838927E+01   7.663721E+01   2.125405E+02   4.364754E+02   1.837756E+02   4.403625E+02   1.513300E+02   1.890962E+02   8.671690E+01   2.672126E+01   5.795655E+01   3.370063E+01   2.105709E+01   3.042111E+01   4.772396E+01   4.174198E+01   1.987791E+01   3.502497E+01   2.739927E+01   9.370669E+01   7.530273E+01   8.386604E+01   4.716732E+01   8.679868E+01   5.918176E+01   6.602688E+01   7.004802E+01   1.794842E+02   8.181760E+01   9.265096E+01   1.114020E+02   5.561887E+01   5.561887E+01   1.397534E+02   3.214918E+02   3.214918E+02   4.123132E+02   3.069641E+02   3.069641E+02   3.470890E+02   3.470890E+02   3.470890E+02   3.562246E+02   3.562246E+02   3.562246E+02   2.908952E+02   2.908952E+02   2.908952E+02   2.908952E+02   2.908952E+02   3.982122E+02   3.982122E+02   3.982122E+02   3.982122E+02   3.982122E+02   7.651577E+01   7.651577E+01   7.651577E+01   7.651577E+01   7.651577E+01   7.651577E+01   7.651577E+01   6.596177E+01   6.596177E+01   6.596177E+01   6.596177E+01   6.596177E+01   6.596177E+01   6.596177E+01   6.596177E+01   6.596177E+01   6.596177E+01   1.213428E+02   1.213428E+02   1.213428E+02   1.213428E+02   1.213428E+02   1.213428E+02   1.213428E+02   1.213428E+02   1.213428E+02   1.090742E+02   1.090742E+02   1.090742E+02   1.090742E+02   1.090742E+02   1.090742E+02   1.090742E+02   1.716269E+02   1.716269E+02   1.716269E+02   1.716269E+02   1.716269E+02   6.789779E+01   6.789779E+01   6.789779E+01   6.789779E+01   4.434274E+01   4.434274E+01   4.434274E+01   1.910497E+01   1.910497E+01   2.561759E+01   2.561759E+01   9.958289E+01   9.958289E+01   1.595534E+02   1.203988E+02   1.380821E+02   1.380821E+02   6.744721E+01   4.039220E+01   2.000068E+01   1.576586E+01   1.512461E+01   1.687016E+01   5.015694E+01   7.824387E+01   2.060667E+02   8.843417E+01   5.785650E+01   1.102786E+02   7.684270E+01   3.102326E+02   7.626944E+01   1.681500E+02   1.730674E+02   6.842072E+01   4.126758E+01   2.747756E+01   3.837168E+01   5.494178E+01   1.656649E+02   1.236135E+02   7.782333E+01   2.793372E+02   1.125746E+02   7.952024E+01   8.356566E+01   1.096021E+02   8.383330E+01   4.231633E+01   2.015123E+01   9.492132E+00   9.366945E+00   1.511308E+01   2.091288E+01   1.628658E+01   4.524451E+01
   1.580456E+02   3.552280E+02   9.103818E+01   6.463444E+01   2.946536E+01   6.408889E+01   1.003805E+02   6.604210E+01   4.579754E+01   4.732391E+01   2.145196E+01   6.369748E+01   6.501562E+01   2.808739E+01   2.318563E+01   3.406836E+01   1.298000E+01   2.368438E+01   3.322382E+01   6.111110E+01   1.008187E+02   6.652792E+01   5.767667E+01   2.573011E+02   3.814146E+02   6.251513E+02   7.823984E+02   1.107365E+02   8.601981E+01   7.326841E+01   3.451380E+01   2.439685E+01   3.649759E+01   3.555555E+01   9.573067E+01   9.597089E+01   2.757353E+01   7.260892E+01   3.920166E+01   5.983054E+01   9.110143E+01   1.286851E+02   2.066495E+02   1.037159E+02   1.120939E+02   6.273955E+01   1.026229E+02   1.267878E+02   5.381281E+01   4.644580E+01   1.107830E+02   7.549886E+01   1.229558E+02   6.331825E+01   7.046749E+01   7.090356E+01   8.929137E+01   6.012279E+01   5.885604E+01   9.915173E+01   8.817707E+01   4.824770E+02   3.353290E+02   3.427127E+02   2.432825E+02   1.960681E+02   8.781208E+01   4.209089E+01   5.072936E+01   2.561122E+01   3.052355E+01   2.743388E+01   2.770941E+01   1.894974E+01   3.266423E+01   2.176093E+01   7.188428E+01   6.091123E+01   7.590883E+01   5.160343E+01   5.388349E+01   1.067753E+02   1.012829E+02   7.696279E+01   1.461640E+02   1.695605E+02   1.143016E+02   1.468529E+02   1.241080E+02   7.569015E+01   7.569015E+01   2.856700E+02   1.766996E+02   1.766996E+02   9.808469E+02   3.874881E+02   3.874881E+02   5.532615E+02   5.532615E+02   5.532615E+02   3.650960E+02   3.650960E+02   3.650960E+02   3.691515E+02   3.691515E+02   3.691515E+02   3.691515E+02   3.691515E+02   1.608302E+02   1.608302E+02   1.608302E+02   1.608302E+02   1.608302E+02   3.291993E+01   3.291993E+01   3.291993E+01   3.291993E+01   3.291993E+01   3.291993E+01   3.291993E+01   2.793433E+01   2.793433E+01   2.793433E+01   2.793433E+01   2.793433E+01   2.793433E+01   2.793433E+01   2.793433E+01   2.793433E+01   2.793433E+01   1.018068E+02   1.018068E+02   1.018068E+02   1.018068E+02   1.018068E+02   1.018068E+02   1.018068E+02   1.018068E+02   1.018068E+02   1.253764E+02   1.253764E+02   1.253764E+02   1.253764E+02   1.253764E+02   1.253764E+02   1.253764E+02   1.557746E+02   1.557746E+02   1.557746E+02   1.557746E+02   1.557746E+02   8.250752E+01   8.250752E+01   8.250752E+01   8.250752E+01   9.704156E+01   9.704156E+01   9.704156E+01   7.180995E+01   7.180995E+01   6.029849E+01   6.029849E+01   1.279717E+02   1.279717E+02   1.544098E+02   1.516751E+02   7.679642E+01   7.679642E+01   3.389762E+01   2.088350E+01   2.029190E+01   2.721467E+01   1.924392E+01   9.500449E+00   5.304353E+01   9.422491E+01   1.389842E+02   9.582355E+01   5.641962E+01   1.183356E+02   1.016800E+02   2.573419E+02   7.404453E+01   1.149719E+02   1.781148E+02   9.695486E+01   8.910780E+01   3.186757E+01   3.730851E+01   6.732266E+01   1.274748E+02   1.427120E+02   8.142695E+01   3.911222E+02   1.690453E+02   1.539489E+02   1.148272E+02   1.404411E+02   8.052998E+01   6.552323E+01   2.093194E+01   2.069728E+01   1.039796E+01   1.212012E+01   1.498775E+01   1.018301E+01   3.958556E+01
   2.403695E+02   1.659885E+02   5.448980E+01   1.225887E+02   6.964030E+01   9.341785E+01   8.357092E+01   5.415056E+01   4.728796E+01   4.566730E+01   3.727734E+01   4.693656E+01   1.536221E+02   9.833083E+01   5.207054E+01   6.343055E+01   3.038351E+01   3.167958E+01   4.010369E+01   1.313117E+02   9.464711E+01   6.768794E+01   3.800485E+01   6.833384E+01   3.779897E+02   3.492624E+02   3.761759E+02   9.330754E+01   7.325201E+01   7.101881E+01   5.670905E+01   7.424626E+01   5.129188E+01   7.024045E+01   1.449033E+02   5.109505E+01   2.651417E+01   6.741504E+01   4.593945E+01   1.073795E+02   5.083823E+01   1.295170E+02   2.358300E+02   1.754203E+02   1.456000E+02   5.928798E+01   1.070888E+02   1.218459E+02   9.837390E+01   8.490231E+01   1.186338E+02   7.861052E+01   9.234413E+01   9.340704E+01   5.836517E+01   4.036139E+01   5.969554E+01   2.888230E+01   6.216457E+01   2.790971E+02   1.609817E+02   6.961305E+02   4.194462E+02   3.651606E+02   3.381952E+02   2.589868E+02   1.426217E+02   1.198617E+02   1.937897E+01   1.651901E+01   2.702895E+01   3.662913E+01   6.748746E+01   4.704584E+01   5.657015E+01   2.588217E+01   5.670093E+01   4.649014E+01   8.398876E+01   6.556415E+01   1.083203E+02   1.183600E+02   1.261582E+02   8.517988E+01   1.433852E+02   3.777978E+02   2.043193E+02   2.407820E+02   9.162442E+01   1.251017E+02   1.251017E+02   1.883816E+02   1.508728E+02   1.508728E+02   6.053339E+02   7.574557E+02   7.574557E+02   8.451010E+02   8.451010E+02   8.451010E+02   4.031635E+02   4.031635E+02   4.031635E+02   4.257868E+02   4.257868E+02   4.257868E+02   4.257868E+02   4.257868E+02   7.549567E+01   7.549567E+01   7.549567E+01   7.549567E+01   7.549567E+01   4.541952E+01   4.541952E+01   4.541952E+01   4.541952E+01   4.541952E+01   4.541952E+01   4.541952E+01   1.715356E+01   1.715356E+01   1.715356E+01   1.715356E+01   1.715356E+01   1.715356E+01   1.715356E+01   1.715356E+01   1.715356E+01   1.715356E+01   4.617245E+01   4.617245E+01   4.617245E+01   4.617245E+01   4.617245E+01   4.617245E+01   4.617245E+01   4.617245E+01   4.617245E+01   1.390149E+02   1.390149E+02   1.390149E+02   1.390149E+02   1.390149E+02   1.390149E+02   1.390149E+02   1.008619E+02   1.008619E+02   1.008619E+02   1.008619E+02   1.008619E+02   4.874977E+01   4.874977E+01   4.874977E+01   4.874977E+01   1.001620E+02   1.001620E+02   1.001620E+02   6.321936E+01   6.321936E+01   5.444414E+01   5.444414E+01   6.340860E+01   6.340860E+01   1.429430E+02   2.261891E+02   9.128927E+01   9.128927E+01   4.347156E+01   2.058421E+01   1.906456E+01   3.668380E+01   2.725178E+01   2.690663E+01   7.130825E+01   1.842966E+02   1.354298E+02   1.063729E+02   7.506541E+01   1.227168E+02   8.985679E+01   2.050739E+02   8.632336E+01   9.194443E+01   7.789567E+01   1.005919E+02   9.303499E+01   3.215396E+01   2.568494E+01   4.464063E+01   1.579934E+02   1.401039E+02   2.468058E+02   3.751912E+02   3.165236E+02   1.769256E+02   1.488309E+02   1.980062E+02   7.067938E+01   5.775224E+01   3.691257E+01   1.069879E+01   2.445014E+01   9.768709E+00   1.535346E+01   1.706322E+01   4.311067E+01
   1.290709E+02   1.581850E+02   2.705843E+02   1.465750E+02   2.676457E+02   1.118035E+02   7.798193E+01   6.559625E+01   1.045979E+02   7.910011E+01   1.048428E+02   1.040217E+02   4.129987E+02   1.938066E+02   1.033226E+02   5.627530E+01   2.447925E+01   7.051064E+01   6.579808E+01   1.848481E+02   2.927759E+02   7.560056E+01   1.031897E+02   1.224109E+02   2.879746E+02   3.323036E+02   4.267546E+02   1.238178E+02   7.501246E+01   6.481100E+01   6.422336E+01   1.125134E+02   1.190358E+02   6.097702E+01   1.022238E+02   5.661339E+01   2.821950E+01   5.270631E+01   3.564458E+01   1.305734E+02   8.481725E+01   7.862514E+01   1.996921E+02   2.887030E+02   1.989297E+02   5.608617E+01   1.127825E+02   1.421357E+02   1.268689E+02   6.048103E+01   8.103868E+01   4.165422E+01   6.597617E+01   1.493281E+02   8.318594E+01   3.726633E+01   3.942487E+01   2.163717E+01   6.051478E+01   2.133635E+02   1.819452E+02   9.112653E+02   4.419006E+02   5.028219E+02   3.770908E+02   1.629732E+02   1.049608E+02   8.198878E+01   2.253177E+01   1.435861E+01   1.354508E+01   3.903549E+01   4.003003E+01   1.055152E+02   2.774918E+01   2.064723E+01   7.483276E+01   4.650637E+01   7.762582E+01   1.039044E+02   2.140741E+02   8.188898E+01   1.788870E+02   7.176786E+01   1.264860E+02   6.046591E+02   3.069171E+02   3.420174E+02   6.180684E+01   1.324632E+02   1.324632E+02   1.074734E+02   1.685489E+02   1.685489E+02   4.730443E+02   6.982828E+02   6.982828E+02   4.418430E+02   4.418430E+02   4.418430E+02   3.113570E+02   3.113570E+02   3.113570E+02   3.404119E+02   3.404119E+02   3.404119E+02   3.404119E+02   3.404119E+02   1.384134E+02   1.384134E+02   1.384134E+02   1.384134E+02   1.384134E+02   3.937780E+01   3.937780E+01   3.937780E+01   3.937780E+01   3.937780E+01   3.937780E+01   3.937780E+01   3.284645E+01   3.284645E+01   3.284645E+01   3.284645E+01   3.284645E+01   3.284645E+01   3.284645E+01   3.284645E+01   3.284645E+01   3.284645E+01   1.629779E+01   1.629779E+01   1.629779E+01   1.629779E+01   1.629779E+01   1.629779E+01   1.629779E+01   1.629779E+01   1.629779E+01   7.194453E+01   7.194453E+01   7.194453E+01   7.194453E+01   7.194453E+01   7.194453E+01   7.194453E+01   1.047271E+02   1.047271E+02   1.047271E+02   1.047271E+02   1.047271E+02   9.762531E+01   9.762531E+01   9.762531E+01   9.762531E+01   5.172341E+01   5.172341E+01   5.172341E+01   3.532593E+01   3.532593E+01   1.107308E+02   1.107308E+02   9.670891E+01   9.670891E+01   2.178558E+02   1.395845E+02   5.237928E+01   5.237928E+01   9.237111E+01   2.865038E+01   3.091094E+01   4.425840E+01   1.016067E+02   1.863036E+01   1.889002E+02   2.069682E+02   1.720438E+02   8.030684E+01   9.938587E+01   1.241048E+02   7.335615E+01   2.223637E+02   8.478320E+01   6.733713E+01   1.439363E+02   1.252081E+02   5.351857E+01   3.798501E+01   3.027704E+01   7.048283E+01   1.813134E+02   2.385021E+02   2.488391E+02   1.162715E+02   2.047987E+02   9.297076E+01   1.520076E+02   2.421802E+02   1.886597E+02   3.584324E+01   3.541458E+01   1.482722E+01   3.951072E+01   2.641902E+01   1.120940E+01   1.754405E+01   3.760067E+01
   1.522763E+02   2.364376E+02   3.695706E+02   3.693161E+02   2.342609E+02   1.458819E+02   1.050765E+02   6.705540E+01   9.502092E+01   7.246159E+01   1.312590E+02   2.298556E+02   4.524994E+02   2.382657E+02   2.040929E+02   7.388961E+01   5.910880E+01   7.527588E+01   1.261998E+02   3.398867E+02   2.764807E+02   5.125387E+01   5.448957E+01   1.339989E+02   1.053020E+02   1.864553E+02   5.727463E+02   9.501144E+01   1.721156E+02   5.006147E+01   1.025320E+02   1.070522E+02   1.771590E+02   1.238523E+02   3.238350E+01   5.812494E+01   7.582016E+01   3.355019E+01   3.000904E+01   5.407235E+01   6.515948E+01   1.045628E+02   3.031658E+02   1.815044E+02   3.238280E+02   1.070074E+02   6.935493E+01   1.539687E+02   8.957504E+01   1.157050E+02   8.006590E+01   8.805241E+01   4.919120E+01   2.035768E+02   5.832874E+01   3.803856E+01   5.081202E+01   1.875372E+01   4.733137E+01   4.885881E+02   5.581110E+02   8.676756E+02   3.704772E+02   4.959978E+02   2.409899E+02   2.238939E+02   2.376042E+02   9.037422E+01   5.443685E+01   3.132850E+01   1.466058E+01   2.083180E+01   2.784229E+01   6.822086E+01   4.337601E+01   2.108080E+01   1.103396E+02   1.860676E+02   8.474157E+01   1.619959E+02   1.273343E+02   6.217263E+01   2.063330E+02   1.702853E+02   7.773431E+01   1.467189E+03   5.586158E+02   2.995641E+02   9.114238E+01   2.338761E+02   2.338761E+02   1.086982E+02   2.194997E+02   2.194997E+02   3.891935E+02   3.851552E+02   3.851552E+02   2.774515E+02   2.774515E+02   2.774515E+02   1.416904E+02   1.416904E+02   1.416904E+02   3.238898E+02   3.238898E+02   3.238898E+02   3.238898E+02   3.238898E+02   1.521406E+02   1.521406E+02   1.521406E+02   1.521406E+02   1.521406E+02   2.739078E+01   2.739078E+01   2.739078E+01   2.739078E+01   2.739078E+01   2.739078E+01   2.739078E+01   3.738840E+01   3.738840E+01   3.738840E+01   3.738840E+01   3.738840E+01   3.738840E+01   3.738840E+01   3.738840E+01   3.738840E+01   3.738840E+01   2.066369E+01   2.066369E+01   2.066369E+01   2.066369E+01   2.066369E+01   2.066369E+01   2.066369E+01   2.066369E+01   2.066369E+01   3.316896E+01   3.316896E+01   3.316896E+01   3.316896E+01   3.316896E+01   3.316896E+01   3.316896E+01   7.979405E+01   7.979405E+01   7.979405E+01   7.979405E+01   7.979405E+01   1.667429E+02   1.667429E+02   1.667429E+02   1.667429E+02   7.027119E+01   7.027119E+01   7.027119E+01   3.430677E+01   3.430677E+01   9.215070E+01   9.215070E+01   1.199826E+02   1.199826E+02   1.275168E+02   1.594223E+02   9.345005E+01   9.345005E+01   5.877043E+01   3.590648E+01   4.262931E+01   1.404769E+02   2.802235E+02   2.879785E+01   2.892668E+02   6.052949E+02   1.374613E+02   7.902812E+01   1.215888E+02   9.245101E+01   7.570837E+01   1.122261E+02   1.051220E+02   1.624500E+02   2.487509E+02   1.041258E+02   7.491660E+01   3.434240E+01   2.595437E+01   2.460509E+01   1.163309E+02   4.301175E+02   1.888383E+02   3.246858E+02   1.781783E+02   1.013329E+02   1.380587E+02   9.167015E+01   1.144160E+02   5.765710E+01   4.763049E+01   2.887337E+01   5.211750E+01   5.281891E+01   1.842609E+01   2.540933E+01   7.275891E+01
   1.110534E+02   2.467105E+02   5.381757E+02   3.654743E+02   1.224795E+02   1.590002E+02   7.863199E+01   4.027168E+01   8.356937E+01   1.713521E+02   8.307874E+01   1.908046E+02   3.000744E+02   1.138366E+02   2.515226E+02   1.064579E+02   6.996548E+01   8.096313E+01   3.401111E+02   2.349542E+02   2.992258E+02   8.165335E+01   3.312067E+01   3.818456E+01   7.800099E+01   2.026826E+02   5.109635E+02   1.053450E+02   2.152952E+02   1.050510E+02   1.751695E+02   9.416006E+01   2.425336E+02   1.277539E+02   4.905909E+01   5.849678E+01   8.184342E+01   3.941528E+01   3.260851E+01   3.558732E+01   9.651550E+01   1.180239E+02   1.575691E+02   3.144659E+02   2.114302E+02   1.297378E+02   4.055005E+01   1.493244E+02   8.199116E+01   6.996786E+01   5.937202E+01   8.268737E+01   1.123209E+02   9.129984E+01   3.429358E+01   3.894825E+01   8.362868E+01   4.250710E+01   7.485306E+01   3.462032E+02   4.230708E+02   6.987567E+02   4.150388E+02   4.555935E+02   3.132251E+02   2.334825E+02   1.661557E+02   7.533832E+01   7.858218E+01   5.317567E+01   1.288030E+01   1.445871E+01   2.527707E+01   6.579470E+01   5.757019E+01   3.846115E+01   1.220136E+02   1.244485E+02   6.693060E+01   1.542832E+02   1.249225E+02   8.250799E+01   3.015055E+02   2.963370E+02   1.009663E+02   7.411431E+02   2.368039E+02   1.193417E+02   1.023305E+02   9.838297E+01   9.838297E+01   2.061235E+02   2.401014E+02   2.401014E+02   6.294062E+02   2.780774E+02   2.780774E+02   1.155617E+02   1.155617E+02   1.155617E+02   1.027228E+02   1.027228E+02   1.027228E+02   1.527513E+02   1.527513E+02   1.527513E+02   1.527513E+02   1.527513E+02   8.052100E+01   8.052100E+01   8.052100E+01   8.052100E+01   8.052100E+01   7.200458E+01   7.200458E+01   7.200458E+01   7.200458E+01   7.200458E+01   7.200458E+01   7.200458E+01   4.452225E+01   4.452225E+01   4.452225E+01   4.452225E+01   4.452225E+01   4.452225E+01   4.452225E+01   4.452225E+01   4.452225E+01   4.452225E+01   8.204874E+01   8.204874E+01   8.204874E+01   8.204874E+01   8.204874E+01   8.204874E+01   8.204874E+01   8.204874E+01   8.204874E+01   5.623603E+01   5.623603E+01   5.623603E+01   5.623603E+01   5.623603E+01   5.623603E+01   5.623603E+01   8.247301E+01   8.247301E+01   8.247301E+01   8.247301E+01   8.247301E+01   1.870984E+02   1.870984E+02   1.870984E+02   1.870984E+02   3.176946E+01   3.176946E+01   3.176946E+01   2.827616E+01   2.827616E+01   4.642658E+01   4.642658E+01   8.139111E+01   8.139111E+01   1.025972E+02   1.185203E+02   7.276678E+01   7.276678E+01   4.673584E+01   4.465161E+01   5.223550E+01   2.171434E+02   1.977718E+02   6.428819E+01   1.592701E+02   1.880108E+02   2.012518E+02   1.078306E+02   2.311398E+02   1.301134E+02   8.380345E+01   1.000276E+02   7.972617E+01   1.866939E+02   2.090352E+02   9.169751E+01   6.546290E+01   8.581585E+01   3.909877E+01   2.457113E+01   1.187635E+02   2.072645E+02   7.756278E+01   1.775665E+02   1.257448E+02   7.059491E+01   1.122347E+02   1.071162E+02   1.988506E+02   6.498288E+01   7.341718E+01   4.715921E+01   4.265085E+01   4.041486E+01   3.466692E+01   4.028711E+01   5.610806E+01
   8.853516E+01   2.171796E+02   3.348879E+02   3.045976E+02   2.224226E+02   9.560809E+01   5.990905E+01   4.437638E+01   1.497536E+02   1.475239E+02   7.777341E+01   1.597278E+02   3.109612E+02   2.135420E+02   2.874126E+02   1.926430E+02   1.315642E+02   1.874538E+02   3.678668E+02   1.004916E+02   9.366528E+01   4.179131E+01   5.401175E+01   8.202971E+01   5.432669E+01   4.800558E+02   3.756678E+02   1.609359E+02   1.594646E+02   1.233145E+02   2.632078E+02   1.632346E+02   2.760339E+02   1.309456E+02   6.361813E+01   9.371292E+01   6.119386E+01   4.496936E+01   6.540489E+01   2.756834E+01   1.400978E+02   1.096099E+02   1.796847E+02   2.111481E+02   1.217358E+02   1.202771E+02   2.849129E+01   8.772739E+01   2.462647E+01   1.982096E+01   5.786285E+01   7.724760E+01   5.123201E+01   4.816753E+01   2.120988E+01   4.994306E+01   5.432526E+01   6.055960E+01   4.777118E+01   1.484521E+02   1.770621E+02   6.942429E+02   1.010619E+03   4.665578E+02   1.419531E+02   9.947771E+01   4.830157E+01   3.410641E+01   1.154159E+02   1.344925E+02   1.331805E+01   1.731933E+01   1.890904E+01   8.048785E+01   5.502666E+01   5.636005E+01   1.531357E+02   9.090723E+01   9.214930E+01   1.314327E+02   2.416531E+02   1.600845E+02   3.522625E+02   5.504670E+02   1.243295E+02   3.853631E+02   2.512538E+02   1.918403E+02   1.193533E+02   2.519864E+02   2.519864E+02   3.096542E+02   2.267293E+02   2.267293E+02   5.263274E+02   2.065280E+02   2.065280E+02   2.259286E+02   2.259286E+02   2.259286E+02   7.197276E+01   7.197276E+01   7.197276E+01   7.824727E+01   7.824727E+01   7.824727E+01   7.824727E+01   7.824727E+01   9.760898E+01   9.760898E+01   9.760898E+01   9.760898E+01   9.760898E+01   5.616455E+01   5.616455E+01   5.616455E+01   5.616455E+01   5.616455E+01   5.616455E+01   5.616455E+01   4.482189E+01   4.482189E+01   4.482189E+01   4.482189E+01   4.482189E+01   4.482189E+01   4.482189E+01   4.482189E+01   4.482189E+01   4.482189E+01   1.062642E+02   1.062642E+02   1.062642E+02   1.062642E+02   1.062642E+02   1.062642E+02   1.062642E+02   1.062642E+02   1.062642E+02   1.053482E+02   1.053482E+02   1.053482E+02   1.053482E+02   1.053482E+02   1.053482E+02   1.053482E+02   1.353214E+02   1.353214E+02   1.353214E+02   1.353214E+02   1.353214E+02   1.507400E+02   1.507400E+02   1.507400E+02   1.507400E+02   3.777042E+01   3.777042E+01   3.777042E+01   4.622532E+01   4.622532E+01   5.505289E+01   5.505289E+01   1.665334E+02   1.665334E+02   1.136204E+02   8.782594E+01   6.389306E+01   6.389306E+01   7.222298E+01   8.574854E+01   1.657553E+02   2.142388E+02   1.795014E+02   9.197483E+01   7.506258E+01   1.767451E+02   3.339482E+02   2.060724E+02   2.267463E+02   1.757243E+02   1.403326E+02   4.186629E+01   1.311827E+02   4.601186E+02   4.265069E+02   1.647551E+02   1.394253E+02   8.233068E+01   5.516961E+01   3.602140E+01   3.620921E+01   9.545602E+01   1.462739E+02   8.921067E+01   1.080367E+02   8.780567E+01   8.278208E+01   4.373835E+02   1.012336E+02   7.614577E+01   9.343020E+01   1.104603E+02   1.313205E+02   3.935355E+01   2.613251E+01   2.554766E+01   4.433198E+01
   9.211890E+01   2.102659E+02   2.585207E+02   2.876306E+02   1.097408E+02   4.584303E+01   8.028139E+01   3.394799E+01   8.395823E+01   1.435196E+02   9.419727E+01   1.778070E+02   7.309510E+02   2.125980E+02   2.472066E+02   2.213206E+02   1.421747E+02   4.182291E+02   1.425253E+02   9.659184E+01   3.329958E+01   5.450085E+01   4.510910E+01   2.015989E+01   7.485215E+01   3.351441E+02   2.353518E+02   2.593965E+02   1.278327E+02   1.427621E+02   1.386676E+02   6.973183E+01   1.725558E+02   1.559625E+02   1.433720E+02   7.863578E+01   1.034649E+02   3.074656E+01   2.664854E+01   2.753450E+01   3.130033E+01   3.909724E+01   9.211242E+01   2.393934E+02   3.550954E+01   5.786352E+01   3.535460E+01   3.771888E+01   2.180722E+01   6.333559E+01   6.319722E+01   1.255606E+02   9.750636E+01   3.550855E+01   1.400361E+01   2.555718E+01   2.992554E+01   5.191545E+01   6.022701E+01   9.127214E+01   2.000097E+02   1.845925E+02   3.559292E+02   5.211256E+02   1.702791E+02   4.788050E+01   5.170448E+01   5.845066E+01   3.143660E+02   9.059105E+01   4.394376E+01   5.767314E+01   2.619020E+01   1.488866E+01   3.424882E+01   1.504579E+02   8.591675E+01   9.264146E+01   7.175965E+01   2.476506E+02   4.525069E+02   2.598681E+02   4.424477E+02   3.405784E+02   1.208620E+02   2.292148E+02   1.705253E+02   9.449293E+01   1.489794E+02   4.287825E+02   4.287825E+02   2.864882E+02   2.110246E+02   2.110246E+02   2.703128E+02   1.841687E+02   1.841687E+02   2.569403E+02   2.569403E+02   2.569403E+02   3.409953E+01   3.409953E+01   3.409953E+01   2.734097E+01   2.734097E+01   2.734097E+01   2.734097E+01   2.734097E+01   4.409845E+01   4.409845E+01   4.409845E+01   4.409845E+01   4.409845E+01   4.708496E+01   4.708496E+01   4.708496E+01   4.708496E+01   4.708496E+01   4.708496E+01   4.708496E+01   6.019515E+01   6.019515E+01   6.019515E+01   6.019515E+01   6.019515E+01   6.019515E+01   6.019515E+01   6.019515E+01   6.019515E+01   6.019515E+01   1.294098E+02   1.294098E+02   1.294098E+02   1.294098E+02   1.294098E+02   1.294098E+02   1.294098E+02   1.294098E+02   1.294098E+02   1.321715E+02   1.321715E+02   1.321715E+02   1.321715E+02   1.321715E+02   1.321715E+02   1.321715E+02   1.044251E+02   1.044251E+02   1.044251E+02   1.044251E+02   1.044251E+02   7.124988E+01   7.124988E+01   7.124988E+01   7.124988E+01   6.589678E+01   6.589678E+01   6.589678E+01   4.005591E+01   4.005591E+01   4.552837E+01   4.552837E+01   2.237802E+01   2.237802E+01   7.420391E+01   8.362389E+01   1.053517E+02   1.053517E+02   9.658395E+01   1.426268E+02   1.773398E+02   4.135570E+02   3.459777E+02   1.851839E+02   1.283333E+02   1.711929E+02   2.891335E+02   5.033921E+02   3.591120E+02   3.870309E+02   6.130248E+01   3.442429E+01   1.849502E+02   2.588787E+02   1.765439E+02   1.161631E+02   1.471809E+02   1.057115E+02   1.244622E+02   5.987625E+01   5.504203E+01   6.411829E+01   8.669157E+01   3.880099E+01   4.649011E+01   1.270872E+02   1.511106E+02   3.595012E+02   1.176004E+02   4.554720E+01   9.089990E+01   8.884428E+01   4.318926E+01   8.545860E+01   6.402931E+01   4.338103E+01   6.023086E+01