# LPF package for  MODFLOW-2005, generated by Flopy.
        53    -1E+30         0  
         1
         0
   0.000000E+00
         0
         0
INTERNAL               1 (207E15.6) -1 #hk layer 1                    
   5.718151E+01   4.035253E+01   2.223196E+02   1.266932E+02   3.393235E+01   1.668959E+01   2.279988E+01   1.852462E+01   4.190928E+01   9.178372E+01   7.004088E+01   1.031236E+02   2.627593E+01   3.368750E+01   4.443666E+01   8.308620E+01   5.845234E+01   1.300684E+02   9.691928E+01   1.251892E+02   2.367367E+01   2.158700E+01   1.455117E+01   3.558681E+01   3.264547E+01   3.703517E+01   2.243341E+01   2.803864E+01   4.889594E+01   3.939775E+01   7.238026E+01   7.381904E+01   2.333631E+02   2.890005E+02   1.223178E+02   1.028262E+02   7.867677E+01   6.355660E+01   3.584120E+01   1.607013E+01   2.529379E+01   5.528258E+01   5.064124E+01   7.188103E+01   1.382747E+01   1.086234E+01   1.598284E+01   9.978607E+00   3.341669E+01   1.426117E+01   3.950540E+01   9.115535E+01   8.172605E+01   2.301406E+01   4.173488E+01   1.124686E+02   7.456400E+01   1.589038E+01   2.471956E+01   1.507400E+02   1.018981E+02   9.680019E+01   1.666522E+02   2.135343E+01   7.738774E+00   3.080914E+01   2.966817E+01   5.204568E+01   7.329563E+01   6.103576E+01   2.391330E+01   3.349648E+01   4.538036E+01   8.739385E+01   2.053739E+02   9.591328E+01   6.906128E+01   6.976520E+01   9.869247E+01   1.259243E+02   9.682827E+01   6.018896E+01   3.104665E+01   1.844145E+01   3.149439E+01   6.357254E+01   3.240385E+01   2.815823E+01   1.913159E+02   2.181220E+02   2.181220E+02   1.437847E+02   7.539777E+01   7.539777E+01   2.112956E+02   1.049637E+02   1.049637E+02   8.708732E+01   8.708732E+01   8.708732E+01   6.300882E+01   6.300882E+01   6.300882E+01   8.258987E+01   8.258987E+01   8.258987E+01   8.258987E+01   8.258987E+01   3.206583E+01   3.206583E+01   3.206583E+01   3.206583E+01   3.206583E+01   2.043177E+01   2.043177E+01   2.043177E+01   2.043177E+01   2.043177E+01   2.043177E+01   2.043177E+01   4.836216E+01   4.836216E+01   4.836216E+01   4.836216E+01   4.836216E+01   4.836216E+01   4.836216E+01   4.836216E+01   4.836216E+01   4.836216E+01   1.961759E+01   1.961759E+01   1.961759E+01   1.961759E+01   1.961759E+01   1.961759E+01   1.961759E+01   1.961759E+01   1.961759E+01   6.652647E+01   6.652647E+01   6.652647E+01   6.652647E+01   6.652647E+01   6.652647E+01   6.652647E+01   4.666402E+01   4.666402E+01   4.666402E+01   4.666402E+01   4.666402E+01   3.935627E+01   3.935627E+01   3.935627E+01   3.935627E+01   5.603084E+01   5.603084E+01   5.603084E+01   2.273517E+01   2.273517E+01   4.151486E+01   4.151486E+01   4.784259E+01   4.784259E+01   1.406899E+01   9.617771E+00   1.830088E+01   1.830088E+01   3.172923E+01   2.209995E+01   1.549986E+01   7.806401E+00   2.545971E+01   4.126810E+01   9.647180E+00   5.466446E+01   8.860213E+01   1.775627E+02   9.565897E+01   8.055579E+01   9.951759E+01   4.659982E+01   1.802754E+01   3.069319E+01   2.684197E+01   2.268548E+01   2.184173E+01   2.857307E+01   3.216001E+01   1.965577E+01   1.629744E+01   8.226746E+01   9.795981E+01   1.106291E+02   3.180703E+01   1.062061E+02   1.206488E+02   1.754659E+02   1.895764E+02   9.622291E+01   2.050725E+01   2.587514E+01   1.496064E+01   7.396371E+00   1.368347E+01   7.531442E+01   2.214665E+02
   2.878478E+01   7.347533E+01   2.092882E+02   5.143362E+01   1.557761E+01   8.130917E+00   1.001276E+01   1.988177E+01   3.746119E+01   1.445009E+02   7.479050E+01   8.185336E+01   3.086376E+01   2.979085E+01   2.325448E+01   6.817148E+01   6.379073E+01   6.480833E+01   4.131323E+01   8.681760E+01   1.648619E+01   1.893472E+01   1.778386E+01   3.858598E+01   4.865536E+01   3.660409E+01   2.357255E+01   1.838958E+01   4.522099E+01   3.746347E+01   5.600739E+01   6.573566E+01   1.122652E+02   2.034595E+02   8.141486E+01   1.003320E+02   1.033520E+02   9.376417E+01   2.449437E+01   4.379821E+01   2.151130E+01   4.281720E+01   7.374931E+01   8.514052E+01   2.474309E+01   1.146264E+01   1.181428E+01   1.017687E+01   3.253070E+01   1.970478E+01   1.108107E+02   7.495978E+01   7.288611E+01   2.441060E+01   9.162321E+01   7.191182E+01   5.404412E+01   9.428399E+00   4.606919E+01   4.104289E+01   6.134649E+01   1.082314E+02   1.049614E+02   3.115890E+01   2.760077E+01   5.989540E+01   5.788516E+01   7.980352E+01   4.367905E+01   7.141040E+01   3.553181E+01   4.979392E+01   4.946702E+01   4.758698E+01   1.264176E+02   1.361752E+02   1.506740E+02   8.051189E+01   9.708714E+01   9.491543E+01   7.342075E+01   8.561190E+01   4.566925E+01   3.024542E+01   2.731138E+01   3.192508E+01   3.085878E+01   6.645691E+01   1.067237E+02   1.625920E+02   1.625920E+02   1.213335E+02   8.276995E+01   8.276995E+01   1.199061E+02   1.830594E+02   1.830594E+02   5.202962E+01   5.202962E+01   5.202962E+01   7.105749E+01   7.105749E+01   7.105749E+01   7.937307E+01   7.937307E+01   7.937307E+01   7.937307E+01   7.937307E+01   2.780861E+01   2.780861E+01   2.780861E+01   2.780861E+01   2.780861E+01   1.904163E+01   1.904163E+01   1.904163E+01   1.904163E+01   1.904163E+01   1.904163E+01   1.904163E+01   1.858941E+01   1.858941E+01   1.858941E+01   1.858941E+01   1.858941E+01   1.858941E+01   1.858941E+01   1.858941E+01   1.858941E+01   1.858941E+01   2.091767E+01   2.091767E+01   2.091767E+01   2.091767E+01   2.091767E+01   2.091767E+01   2.091767E+01   2.091767E+01   2.091767E+01   3.967283E+01   3.967283E+01   3.967283E+01   3.967283E+01   3.967283E+01   3.967283E+01   3.967283E+01   2.922501E+01   2.922501E+01   2.922501E+01   2.922501E+01   2.922501E+01   3.927838E+01   3.927838E+01   3.927838E+01   3.927838E+01   4.895302E+01   4.895302E+01   4.895302E+01   5.598071E+01   5.598071E+01   6.912450E+01   6.912450E+01   1.036072E+02   1.036072E+02   3.440922E+01   1.425348E+01   1.488062E+01   1.488062E+01   2.031079E+01   3.395185E+01   1.552204E+01   1.757617E+01   3.175123E+01   1.927886E+01   3.642601E+01   9.736839E+01   1.179153E+02   2.728544E+02   1.020252E+02   5.479045E+01   5.997126E+01   3.130317E+01   2.034818E+01   2.866691E+01   4.235566E+01   1.619075E+01   4.440648E+01   2.189327E+01   1.488202E+01   2.263430E+01   1.646139E+01   4.580021E+01   1.216184E+02   1.390092E+02   6.002851E+01   1.229705E+02   1.843185E+02   1.307671E+02   9.474837E+01   7.634620E+01   1.843734E+01   2.161710E+01   1.421074E+01   1.072783E+01   1.118785E+01   7.225121E+01   1.551487E+02
   1.605781E+01   4.263340E+01   2.172106E+02   5.573758E+01   1.392447E+01   5.945490E+00   9.506056E+00   1.100777E+01   3.178829E+01   8.449329E+01   8.626459E+01   3.452668E+01   1.691598E+01   2.201204E+01   4.467661E+01   4.761769E+01   6.238292E+01   5.613074E+01   3.030267E+01   3.908602E+01   3.280089E+01   2.020585E+01   4.517293E+01   3.524577E+01   3.604905E+01   3.655650E+01   3.614906E+01   3.565857E+01   2.500750E+01   5.057922E+01   8.298380E+01   5.065049E+01   6.291617E+01   9.156444E+01   4.573946E+01   3.861852E+01   1.140445E+02   7.620288E+01   4.095203E+01   5.137994E+01   2.453329E+01   3.758894E+01   9.929815E+01   8.811257E+01   3.644744E+01   4.273156E+01   1.376142E+01   7.598307E+00   2.901794E+01   5.468514E+01   9.158887E+01   6.214795E+01   5.352828E+01   1.377631E+01   4.722645E+01   6.564157E+01   7.487141E+01   4.580168E+01   7.279650E+01   2.533519E+01   6.258858E+01   8.668617E+01   7.523416E+01   2.425140E+01   5.568679E+01   2.869093E+01   1.250544E+02   4.236047E+01   7.951716E+01   6.172175E+01   5.804482E+01   5.301107E+01   4.655002E+01   3.501133E+01   1.982867E+02   2.025796E+02   1.440482E+02   1.512496E+02   2.020108E+02   1.337579E+02   7.034593E+01   6.514461E+01   4.695971E+01   1.330354E+01   1.973047E+01   3.076525E+01   2.334905E+01   4.110652E+01   8.735655E+01   8.180887E+01   8.180887E+01   1.250530E+02   1.351822E+02   1.351822E+02   9.034039E+01   1.360339E+02   1.360339E+02   3.138118E+01   3.138118E+01   3.138118E+01   1.283105E+02   1.283105E+02   1.283105E+02   7.666151E+01   7.666151E+01   7.666151E+01   7.666151E+01   7.666151E+01   3.049513E+01   3.049513E+01   3.049513E+01   3.049513E+01   3.049513E+01   3.775566E+01   3.775566E+01   3.775566E+01   3.775566E+01   3.775566E+01   3.775566E+01   3.775566E+01   1.600620E+01   1.600620E+01   1.600620E+01   1.600620E+01   1.600620E+01   1.600620E+01   1.600620E+01   1.600620E+01   1.600620E+01   1.600620E+01   2.094244E+01   2.094244E+01   2.094244E+01   2.094244E+01   2.094244E+01   2.094244E+01   2.094244E+01   2.094244E+01   2.094244E+01   3.304963E+01   3.304963E+01   3.304963E+01   3.304963E+01   3.304963E+01   3.304963E+01   3.304963E+01   1.349822E+01   1.349822E+01   1.349822E+01   1.349822E+01   1.349822E+01   1.805799E+01   1.805799E+01   1.805799E+01   1.805799E+01   5.159048E+01   5.159048E+01   5.159048E+01   6.132845E+01   6.132845E+01   9.217706E+01   9.217706E+01   4.525685E+01   4.525685E+01   2.096894E+01   1.492767E+01   1.149113E+01   1.149113E+01   2.919116E+01   5.328164E+01   1.115229E+01   9.526793E+00   2.005390E+01   2.572827E+01   7.587795E+01   7.497110E+01   1.441337E+02   1.805527E+02   1.518446E+02   5.245996E+01   2.984303E+01   3.184610E+01   2.756476E+01   2.022778E+01   2.135623E+01   3.407290E+01   3.735351E+01   3.409278E+01   4.576454E+01   2.771728E+01   5.335115E+01   6.753128E+01   6.687572E+01   1.441501E+02   1.044697E+02   8.266188E+01   2.496927E+02   5.527348E+01   3.945604E+01   6.672023E+01   1.606503E+01   2.396734E+01   3.892533E+01   1.840260E+01   1.709699E+01   9.006095E+01   1.546131E+02
   4.263962E+01   8.087028E+01   1.254254E+02   7.940842E+01   7.990478E+00   5.691796E+00   2.670955E+01   1.204107E+01   3.398763E+01   4.448824E+01   1.012892E+02   6.970590E+01   4.447067E+01   1.673238E+01   9.322330E+01   1.080329E+02   6.957999E+01   4.771679E+01   4.761599E+01   3.347279E+01   1.994638E+01   3.298262E+01   1.030718E+02   7.954753E+01   6.676733E+01   9.858805E+01   3.267892E+01   2.909361E+01   2.090886E+01   3.836987E+01   5.151942E+01   5.518882E+01   5.524709E+01   4.929016E+01   7.899489E+01   4.548093E+01   4.955766E+01   1.090990E+02   8.050166E+01   8.249680E+01   4.868163E+01   3.561477E+01   6.501759E+01   5.159758E+01   3.252542E+01   2.794835E+01   7.023646E+00   4.465441E+00   4.158997E+01   3.216040E+01   2.856577E+01   3.511741E+01   2.568663E+01   3.161582E+01   4.082765E+01   5.301477E+01   4.588760E+01   8.449248E+01   7.315899E+01   2.722153E+01   2.823263E+01   3.989223E+01   5.458990E+01   2.136238E+01   4.090698E+01   2.903914E+01   1.506194E+02   2.943151E+01   4.420391E+01   5.268412E+01   1.744358E+02   6.190233E+01   7.338649E+01   2.607298E+01   2.522296E+02   1.501242E+02   2.541160E+02   2.613925E+02   1.030150E+02   1.568807E+02   1.877606E+02   1.040460E+02   3.511876E+01   3.123244E+01   2.889711E+01   1.444387E+01   1.190800E+01   1.587912E+01   1.262180E+02   8.905033E+01   8.905033E+01   1.114982E+02   5.679810E+01   5.679810E+01   1.544418E+02   1.280266E+02   1.280266E+02   6.754000E+01   6.754000E+01   6.754000E+01   1.019530E+02   1.019530E+02   1.019530E+02   9.432922E+01   9.432922E+01   9.432922E+01   9.432922E+01   9.432922E+01   8.223962E+01   8.223962E+01   8.223962E+01   8.223962E+01   8.223962E+01   1.064199E+02   1.064199E+02   1.064199E+02   1.064199E+02   1.064199E+02   1.064199E+02   1.064199E+02   1.314175E+01   1.314175E+01   1.314175E+01   1.314175E+01   1.314175E+01   1.314175E+01   1.314175E+01   1.314175E+01   1.314175E+01   1.314175E+01   7.793284E+00   7.793284E+00   7.793284E+00   7.793284E+00   7.793284E+00   7.793284E+00   7.793284E+00   7.793284E+00   7.793284E+00   1.311938E+01   1.311938E+01   1.311938E+01   1.311938E+01   1.311938E+01   1.311938E+01   1.311938E+01   1.334329E+01   1.334329E+01   1.334329E+01   1.334329E+01   1.334329E+01   9.578657E+00   9.578657E+00   9.578657E+00   9.578657E+00   5.872470E+01   5.872470E+01   5.872470E+01   9.147113E+01   9.147113E+01   4.164580E+01   4.164580E+01   1.821150E+01   1.821150E+01   2.166143E+01   1.422432E+01   1.385527E+01   1.385527E+01   3.301860E+01   5.844579E+01   7.365466E+00   4.810158E+00   1.095085E+01   3.215200E+01   5.024487E+01   5.468053E+01   8.690619E+01   9.797615E+01   8.166985E+01   8.192179E+01   2.553281E+01   2.778284E+01   4.259158E+01   3.923949E+01   3.570827E+01   3.156124E+01   8.942794E+01   3.380117E+01   3.036925E+01   2.374640E+01   7.671593E+01   4.410515E+01   2.881174E+01   1.020484E+02   1.840883E+02   1.643901E+02   2.375264E+02   2.795071E+01   3.365186E+01   4.337052E+01   1.790221E+01   3.650451E+01   3.670024E+01   2.337420E+01   1.521456E+01   5.495606E+01   1.092681E+02
   1.333774E+01   5.245196E+01   9.491721E+01   8.989664E+01   1.507290E+01   3.885761E+00   4.478242E+01   1.403055E+01   4.246271E+01   7.590609E+01   4.285008E+01   4.549252E+01   3.276466E+01   2.666369E+01   5.648627E+01   6.591968E+01   5.674459E+01   2.283354E+01   4.018382E+01   5.744387E+01   3.636924E+01   9.049896E+01   2.561438E+02   1.439405E+02   8.745994E+01   9.747899E+01   3.946333E+01   2.215710E+01   2.821577E+01   3.617756E+01   2.396194E+01   9.894395E+01   5.188431E+01   8.114263E+01   5.598247E+01   1.531183E+02   5.606161E+01   1.700828E+02   1.402163E+02   1.109125E+02   1.595035E+02   5.271274E+01   5.292137E+01   1.783677E+01   1.138271E+01   8.139438E+00   3.825316E+00   3.868586E+00   2.062603E+01   8.319551E+01   3.294724E+01   1.351006E+01   2.607212E+01   2.090631E+01   4.632923E+01   5.724333E+01   5.423536E+01   6.059394E+01   3.137582E+01   3.072569E+01   1.824605E+01   3.154012E+01   3.307527E+01   2.635296E+01   4.321481E+01   6.411302E+01   9.500298E+01   2.400796E+01   4.417258E+01   1.055298E+02   9.433090E+01   4.198754E+01   3.928183E+01   5.186361E+01   9.348006E+01   9.545828E+01   2.187637E+02   9.033553E+01   8.040063E+01   1.011755E+02   3.223375E+02   1.675151E+02   3.020784E+01   1.174050E+01   3.589461E+01   1.945345E+01   1.598807E+01   2.142947E+01   1.345598E+02   1.699646E+02   1.699646E+02   1.802428E+02   8.617928E+01   8.617928E+01   8.211552E+01   1.299463E+02   1.299463E+02   8.095284E+01   8.095284E+01   8.095284E+01   1.756789E+02   1.756789E+02   1.756789E+02   6.939246E+01   6.939246E+01   6.939246E+01   6.939246E+01   6.939246E+01   7.957372E+01   7.957372E+01   7.957372E+01   7.957372E+01   7.957372E+01   6.547953E+01   6.547953E+01   6.547953E+01   6.547953E+01   6.547953E+01   6.547953E+01   6.547953E+01   1.400054E+01   1.400054E+01   1.400054E+01   1.400054E+01   1.400054E+01   1.400054E+01   1.400054E+01   1.400054E+01   1.400054E+01   1.400054E+01   7.716216E+00   7.716216E+00   7.716216E+00   7.716216E+00   7.716216E+00   7.716216E+00   7.716216E+00   7.716216E+00   7.716216E+00   1.052386E+01   1.052386E+01   1.052386E+01   1.052386E+01   1.052386E+01   1.052386E+01   1.052386E+01   1.695409E+01   1.695409E+01   1.695409E+01   1.695409E+01   1.695409E+01   1.388408E+01   1.388408E+01   1.388408E+01   1.388408E+01   2.295175E+01   2.295175E+01   2.295175E+01   5.226041E+01   5.226041E+01   2.644249E+01   2.644249E+01   1.567185E+01   1.567185E+01   1.758129E+01   1.194563E+01   2.495075E+01   2.495075E+01   2.892380E+01   3.887873E+01   6.261582E+00   6.991920E+00   9.726272E+00   6.608372E+01   1.013288E+02   5.023018E+01   5.110638E+01   5.264846E+01   5.385144E+01   5.646686E+01   9.344938E+00   1.402547E+01   3.996441E+01   6.732362E+01   2.123525E+01   4.970424E+01   6.380195E+01   3.497519E+01   2.297468E+01   2.506569E+01   3.642167E+01   1.692900E+01   3.198421E+01   3.000133E+01   8.618449E+01   1.151549E+02   1.122618E+02   4.598667E+01   2.394703E+01   2.139747E+01   2.379609E+01   2.289108E+01   2.421074E+01   3.364296E+01   3.049889E+01   6.813674E+01   1.406490E+02
   7.615054E+00   2.427948E+01   1.028206E+02   6.745637E+01   4.620308E+01   1.046837E+01   4.643765E+01   4.309906E+01   1.122068E+02   1.125661E+02   6.673817E+01   2.341095E+01   2.437960E+01   1.104080E+02   6.324128E+01   7.679595E+01   5.562496E+01   3.718926E+01   4.370348E+01   9.068210E+01   6.092543E+01   1.183293E+02   4.839761E+02   1.951923E+02   3.893585E+01   7.971155E+01   3.609508E+01   2.972547E+01   2.629719E+01   5.386164E+01   1.879081E+01   7.019646E+01   8.589637E+01   1.207377E+02   7.647458E+01   8.041121E+01   8.855606E+01   2.274659E+02   3.988864E+02   2.051356E+02   2.554557E+02   6.277591E+01   4.187700E+01   2.507756E+01   1.230344E+01   5.517757E+00   1.339650E+00   5.313552E+00   1.994518E+01   6.325064E+01   3.486003E+01   2.542028E+01   2.112947E+01   2.055533E+01   2.925705E+01   5.131716E+01   5.585612E+01   4.621675E+01   4.340406E+01   2.963006E+01   2.355853E+01   2.732003E+01   2.269845E+01   3.610411E+01   3.509900E+01   1.422317E+02   5.491879E+01   4.676535E+01   7.845573E+01   6.136668E+01   1.298039E+02   5.063388E+01   5.831079E+01   4.961187E+01   6.431609E+01   1.118759E+02   1.343204E+02   1.152462E+02   5.682819E+01   1.084749E+02   2.468365E+02   1.406516E+02   2.628575E+01   1.364930E+01   1.723022E+01   1.003652E+01   3.389536E+01   4.169299E+01   1.093695E+02   1.279586E+02   1.279586E+02   2.793852E+02   1.126328E+02   1.126328E+02   6.492363E+01   1.497024E+02   1.497024E+02   8.588136E+01   8.588136E+01   8.588136E+01   1.178540E+02   1.178540E+02   1.178540E+02   2.296598E+02   2.296598E+02   2.296598E+02   2.296598E+02   2.296598E+02   5.703465E+01   5.703465E+01   5.703465E+01   5.703465E+01   5.703465E+01   3.970332E+01   3.970332E+01   3.970332E+01   3.970332E+01   3.970332E+01   3.970332E+01   3.970332E+01   2.651061E+01   2.651061E+01   2.651061E+01   2.651061E+01   2.651061E+01   2.651061E+01   2.651061E+01   2.651061E+01   2.651061E+01   2.651061E+01   2.741617E+01   2.741617E+01   2.741617E+01   2.741617E+01   2.741617E+01   2.741617E+01   2.741617E+01   2.741617E+01   2.741617E+01   1.439239E+01   1.439239E+01   1.439239E+01   1.439239E+01   1.439239E+01   1.439239E+01   1.439239E+01   9.964909E+00   9.964909E+00   9.964909E+00   9.964909E+00   9.964909E+00   1.453135E+01   1.453135E+01   1.453135E+01   1.453135E+01   2.246487E+01   2.246487E+01   2.246487E+01   1.546064E+01   1.546064E+01   1.284222E+01   1.284222E+01   1.278710E+01   1.278710E+01   9.305479E+00   1.262038E+01   2.774080E+01   2.774080E+01   2.093300E+01   5.134708E+01   2.709161E+01   1.354453E+01   3.467780E+01   7.182004E+01   8.097085E+01   1.175899E+02   2.746405E+01   7.302345E+01   2.581934E+01   1.394475E+01   1.456109E+01   2.093348E+01   4.623532E+01   4.369244E+01   3.792104E+01   7.150359E+01   5.259813E+01   3.523193E+01   3.034772E+01   2.163455E+01   2.290373E+01   3.943790E+01   2.598913E+01   1.270698E+01   5.828138E+01   8.620548E+01   1.049291E+02   3.980314E+01   2.982656E+01   3.830659E+01   2.631213E+01   3.143231E+01   2.614270E+01   1.142188E+01   3.178852E+01   4.822224E+01   1.348870E+02
   1.794598E+01   6.805492E+01   1.885564E+02   1.741097E+02   2.069768E+02   3.794767E+01   3.461481E+01   8.626250E+01   2.410305E+02   1.750150E+02   7.998476E+01   2.561642E+01   1.166531E+01   4.045037E+01   6.058846E+01   4.702218E+01   4.993741E+01   8.411411E+01   4.540067E+01   9.944054E+01   6.251773E+01   1.381137E+02   5.020920E+02   2.017395E+02   1.076434E+02   6.575980E+01   3.204837E+01   4.418153E+01   5.451947E+01   6.534245E+01   4.399540E+01   5.587632E+01   8.094686E+01   6.916432E+01   1.099552E+02   1.370968E+02   7.848763E+01   1.502680E+02   3.902224E+02   2.487961E+02   1.807617E+02   1.010946E+02   1.949184E+01   2.006788E+01   1.942860E+01   6.355026E+00   3.250554E+00   9.080407E+00   2.201953E+01   4.062553E+01   2.791582E+01   1.905526E+01   1.298410E+01   1.624525E+01   5.783964E+01   3.093877E+01   2.845478E+01   4.514575E+01   1.499034E+02   8.271431E+01   2.925001E+01   2.536178E+01   2.151345E+01   1.728402E+01   8.381853E+01   9.088918E+01   4.248149E+01   1.423160E+02   2.060616E+02   9.229828E+01   1.605691E+02   7.542241E+01   4.347319E+01   5.747118E+01   7.520045E+01   1.010069E+02   7.799213E+01   3.222795E+01   4.091656E+01   4.797913E+01   1.487195E+02   1.944031E+02   3.257816E+01   8.709206E+00   2.665294E+01   1.152139E+01   3.698436E+01   1.216588E+02   2.756927E+02   2.178401E+02   2.178401E+02   2.008936E+02   7.072643E+01   7.072643E+01   4.517558E+01   1.048088E+02   1.048088E+02   8.672577E+01   8.672577E+01   8.672577E+01   1.623178E+02   1.623178E+02   1.623178E+02   2.832387E+02   2.832387E+02   2.832387E+02   2.832387E+02   2.832387E+02   7.040771E+01   7.040771E+01   7.040771E+01   7.040771E+01   7.040771E+01   5.205991E+01   5.205991E+01   5.205991E+01   5.205991E+01   5.205991E+01   5.205991E+01   5.205991E+01   2.454125E+01   2.454125E+01   2.454125E+01   2.454125E+01   2.454125E+01   2.454125E+01   2.454125E+01   2.454125E+01   2.454125E+01   2.454125E+01   5.743063E+01   5.743063E+01   5.743063E+01   5.743063E+01   5.743063E+01   5.743063E+01   5.743063E+01   5.743063E+01   5.743063E+01   2.242721E+01   2.242721E+01   2.242721E+01   2.242721E+01   2.242721E+01   2.242721E+01   2.242721E+01   1.445057E+01   1.445057E+01   1.445057E+01   1.445057E+01   1.445057E+01   1.773487E+01   1.773487E+01   1.773487E+01   1.773487E+01   1.095172E+01   1.095172E+01   1.095172E+01   1.921313E+01   1.921313E+01   1.681663E+01   1.681663E+01   1.552267E+01   1.552267E+01   9.315530E+00   6.653824E+00   1.367683E+01   1.367683E+01   2.757685E+01   3.194946E+01   1.044712E+01   1.651225E+01   6.493622E+01   1.128247E+02   3.860717E+01   4.479449E+01   4.130777E+01   1.607881E+01   2.329241E+01   1.269020E+01   4.895691E+01   2.230139E+01   4.284255E+01   4.003030E+01   2.576894E+01   4.748028E+01   3.081798E+01   9.191699E+01   3.353245E+01   1.830379E+01   2.459340E+01   5.354729E+01   4.422962E+01   2.151147E+01   3.699500E+01   4.621774E+01   1.335255E+02   2.445982E+01   2.359517E+01   2.741979E+01   1.620019E+01   1.565578E+01   2.193812E+01   2.358096E+01   3.266755E+01   5.979524E+01   1.062142E+02
   5.961244E+01   1.221520E+02   1.544383E+02   1.911648E+02   2.311243E+02   3.407068E+01   1.572674E+01   5.347219E+01   9.428889E+01   1.335033E+02   7.351805E+01   4.161234E+01   2.013723E+01   4.682410E+01   4.493828E+01   7.523381E+01   5.963778E+01   4.388112E+01   5.103445E+01   9.236021E+01   6.425393E+01   1.266822E+02   4.199997E+02   1.254222E+02   1.079179E+02   6.186006E+01   4.213189E+01   6.262318E+01   1.256383E+02   4.874272E+01   5.542848E+01   2.855056E+01   7.443090E+01   1.539866E+02   2.219144E+02   1.442228E+02   1.567624E+02   2.775496E+02   5.408324E+02   2.145050E+02   1.921141E+02   6.879205E+01   8.501877E+00   1.119350E+01   8.992412E+00   9.536999E+00   5.752479E+00   9.419600E+00   2.364461E+01   8.029577E+01   3.395406E+01   3.775685E+01   8.624785E+00   2.102188E+01   3.222129E+01   3.859139E+01   4.183976E+01   1.227207E+02   8.585488E+01   8.004385E+01   4.765180E+01   2.273859E+01   2.092161E+01   2.484928E+01   1.201869E+02   1.342395E+02   5.787497E+01   9.246221E+01   4.417524E+02   2.144503E+02   2.167623E+02   1.203799E+02   5.654469E+01   4.346519E+01   3.036884E+01   9.317388E+01   3.803423E+01   3.421403E+01   3.065919E+01   5.457314E+01   7.948767E+01   1.081066E+02   6.356427E+01   8.228956E+00   1.369708E+01   2.457650E+01   5.263464E+01   1.152143E+02   2.451683E+02   1.341421E+02   1.341421E+02   5.664127E+01   7.163455E+01   7.163455E+01   6.547454E+01   4.236784E+01   4.236784E+01   7.303009E+01   7.303009E+01   7.303009E+01   1.901235E+02   1.901235E+02   1.901235E+02   2.548513E+02   2.548513E+02   2.548513E+02   2.548513E+02   2.548513E+02   1.081019E+02   1.081019E+02   1.081019E+02   1.081019E+02   1.081019E+02   3.600451E+01   3.600451E+01   3.600451E+01   3.600451E+01   3.600451E+01   3.600451E+01   3.600451E+01   3.117392E+01   3.117392E+01   3.117392E+01   3.117392E+01   3.117392E+01   3.117392E+01   3.117392E+01   3.117392E+01   3.117392E+01   3.117392E+01   7.401608E+01   7.401608E+01   7.401608E+01   7.401608E+01   7.401608E+01   7.401608E+01   7.401608E+01   7.401608E+01   7.401608E+01   1.999759E+01   1.999759E+01   1.999759E+01   1.999759E+01   1.999759E+01   1.999759E+01   1.999759E+01   3.068611E+01   3.068611E+01   3.068611E+01   3.068611E+01   3.068611E+01   1.000752E+01   1.000752E+01   1.000752E+01   1.000752E+01   1.396196E+01   1.396196E+01   1.396196E+01   1.579636E+01   1.579636E+01   1.038995E+01   1.038995E+01   9.303075E+00   9.303075E+00   9.405445E+00   9.326039E+00   1.264789E+01   1.264789E+01   1.262407E+01   2.924328E+01   1.129847E+01   7.721803E+00   5.022253E+01   1.247757E+02   1.104470E+02   5.506929E+01   1.968481E+01   8.687324E+00   1.541631E+01   1.239933E+01   4.575672E+01   4.758571E+01   8.321098E+01   4.415467E+01   5.575466E+01   6.371361E+01   3.635918E+01   4.529187E+01   2.705235E+01   3.555083E+01   2.983005E+01   4.128072E+01   2.041905E+01   1.981970E+01   5.043272E+01   2.856889E+01   1.078255E+02   2.322251E+01   2.767798E+01   1.513994E+01   1.048028E+01   4.391397E+00   2.688926E+01   2.847629E+01   2.151429E+01   4.723908E+01   6.136288E+01
   1.154078E+02   1.392852E+02   2.831009E+02   1.052693E+02   1.551578E+02   1.282675E+01   1.344376E+01   4.505621E+01   1.832454E+02   7.007131E+01   5.915046E+01   2.992063E+01   2.083920E+01   3.159694E+01   3.628235E+01   1.318382E+02   1.150216E+02   7.840357E+01   3.819493E+01   1.803080E+01   1.050562E+02   1.932005E+02   8.650937E+02   2.198856E+02   9.097955E+01   1.158269E+02   2.973370E+01   4.324277E+01   1.038494E+02   4.933056E+01   4.969729E+01   6.008179E+01   1.115497E+02   2.716446E+02   1.559634E+02   1.381170E+02   1.350889E+02   2.454162E+02   2.633485E+02   1.946308E+02   1.326005E+02   7.463500E+01   1.455894E+01   2.921717E+01   1.130758E+01   7.624769E+00   2.003434E+01   1.056648E+01   2.480062E+01   4.005526E+01   2.503676E+01   2.700155E+01   1.294299E+01   1.202383E+01   1.170942E+01   1.889122E+01   2.964774E+01   1.027607E+02   2.026554E+02   1.243020E+02   3.946519E+01   1.566670E+01   2.935828E+01   4.794660E+01   3.941603E+01   7.823208E+01   9.125419E+01   1.766198E+02   5.116876E+02   1.337614E+02   2.095422E+02   1.043118E+02   7.169656E+01   4.682565E+01   2.707286E+01   6.625565E+01   2.235353E+01   3.991163E+01   3.321368E+01   4.595718E+01   7.099390E+01   1.179537E+02   3.676560E+01   1.429403E+01   8.547121E+00   2.852575E+01   5.723306E+01   8.080478E+01   1.652505E+02   1.582455E+02   1.582455E+02   4.142850E+01   7.592497E+01   7.592497E+01   6.171485E+01   7.201315E+01   7.201315E+01   5.846434E+01   5.846434E+01   5.846434E+01   1.167112E+02   1.167112E+02   1.167112E+02   1.555958E+02   1.555958E+02   1.555958E+02   1.555958E+02   1.555958E+02   6.747630E+01   6.747630E+01   6.747630E+01   6.747630E+01   6.747630E+01   2.927460E+01   2.927460E+01   2.927460E+01   2.927460E+01   2.927460E+01   2.927460E+01   2.927460E+01   1.508748E+01   1.508748E+01   1.508748E+01   1.508748E+01   1.508748E+01   1.508748E+01   1.508748E+01   1.508748E+01   1.508748E+01   1.508748E+01   6.906635E+01   6.906635E+01   6.906635E+01   6.906635E+01   6.906635E+01   6.906635E+01   6.906635E+01   6.906635E+01   6.906635E+01   2.548700E+01   2.548700E+01   2.548700E+01   2.548700E+01   2.548700E+01   2.548700E+01   2.548700E+01   1.923839E+01   1.923839E+01   1.923839E+01   1.923839E+01   1.923839E+01   1.615023E+01   1.615023E+01   1.615023E+01   1.615023E+01   1.056073E+01   1.056073E+01   1.056073E+01   1.733353E+01   1.733353E+01   1.462383E+01   1.462383E+01   1.165861E+01   1.165861E+01   1.394029E+01   8.034106E+00   1.460038E+01   1.460038E+01   2.541073E+01   3.607626E+01   2.007900E+01   2.104372E+01   1.021059E+02   3.098459E+02   4.219249E+02   2.976396E+01   1.738354E+01   3.357807E+00   1.877181E+01   1.723204E+01   5.423050E+01   5.191845E+01   6.810856E+01   5.270962E+01   5.334048E+01   7.986668E+01   2.901860E+01   8.555750E+01   6.542693E+01   5.047601E+01   6.201684E+01   3.730368E+01   1.349046E+01   3.834444E+01   2.357096E+01   4.087420E+01   5.648580E+01   3.522886E+01   6.916320E+01   2.775486E+01   1.059529E+01   5.302345E+00   1.625765E+01   2.483502E+01   2.947232E+01   3.531755E+01   6.605167E+01