# LPF package for  MODFLOW-2005, generated by Flopy.
        53    -1E+30         0  
         1
         0
   0.000000E+00
         0
         0
INTERNAL               1 (207E15.6) -1 #hk layer 1                    
   6.964317E+01   6.356046E+01   7.551916E+01   8.045282E+00   1.345699E+01   2.037256E+01   2.252327E+01   1.873370E+01   5.277813E+01   5.446930E+01   5.248125E+01   9.544183E+00   3.134562E+01   1.361123E+02   9.295835E+01   2.200278E+01   2.531097E+01   1.279583E+01   3.282288E+01   7.074534E+01   2.954655E+02   7.681369E+01   4.133074E+01   2.966121E+01   8.648829E+00   1.022627E+01   9.346605E+00   1.116819E+01   3.517735E+01   1.980117E+01   5.650416E+01   9.354678E+01   4.328522E+01   4.371016E+01   3.320743E+01   2.341439E+01   5.228541E+01   2.079696E+01   3.452358E+01   4.798286E+01   8.191155E+01   2.768861E+01   2.416767E+01   3.855166E+01   1.752860E+01   1.707616E+01   1.710310E+01   1.608345E+01   3.483965E+01   2.050148E+01   1.435943E+01   1.173508E+01   8.888362E+01   3.558068E+01   1.422686E+01   9.372669E+00   1.248451E+01   1.496869E+01   1.393571E+01   2.642288E+01   2.712639E+01   8.330470E+01   7.194392E+01   8.807235E+01   7.607350E+01   2.754357E+01   9.493045E+00   2.746683E+01   4.418076E+01   6.184755E+01   3.948537E+01   2.901818E+01   4.543667E+01   8.358110E+01   4.955983E+01   2.622765E+01   3.203666E+01   5.194395E+01   2.756954E+01   4.448283E+01   6.924573E+01   4.473061E+01   3.760058E+01   3.829835E+01   4.854726E+01   1.018526E+02   1.234839E+02   1.208740E+02   1.063121E+02   4.175573E+01   4.175573E+01   5.295453E+01   7.826891E+01   7.826891E+01   8.149815E+01   4.004973E+01   4.004973E+01   1.800862E+01   1.800862E+01   1.800862E+01   5.866382E+01   5.866382E+01   5.866382E+01   3.644520E+01   3.644520E+01   3.644520E+01   3.644520E+01   3.644520E+01   4.770550E+01   4.770550E+01   4.770550E+01   4.770550E+01   4.770550E+01   4.157072E+01   4.157072E+01   4.157072E+01   4.157072E+01   4.157072E+01   4.157072E+01   4.157072E+01   4.473512E+01   4.473512E+01   4.473512E+01   4.473512E+01   4.473512E+01   4.473512E+01   4.473512E+01   4.473512E+01   4.473512E+01   4.473512E+01   3.386542E+01   3.386542E+01   3.386542E+01   3.386542E+01   3.386542E+01   3.386542E+01   3.386542E+01   3.386542E+01   3.386542E+01   1.275615E+01   1.275615E+01   1.275615E+01   1.275615E+01   1.275615E+01   1.275615E+01   1.275615E+01   3.014252E+01   3.014252E+01   3.014252E+01   3.014252E+01   3.014252E+01   8.054971E+01   8.054971E+01   8.054971E+01   8.054971E+01   4.129443E+01   4.129443E+01   4.129443E+01   1.604886E+01   1.604886E+01   2.342446E+01   2.342446E+01   2.004906E+01   2.004906E+01   3.192172E+01   2.040930E+01   8.540953E+00   8.540953E+00   2.800946E+00   7.860523E+00   1.583166E+01   1.711757E+01   1.330744E+01   1.227505E+01   1.523623E+01   5.026461E+01   4.466302E+01   7.322298E+01   3.596316E+01   6.969735E+01   5.944077E+01   3.892732E+01   8.135912E+01   1.148085E+02   8.002714E+01   4.869960E+01   1.880759E+01   2.897360E+01   1.514663E+02   2.050063E+02   1.595960E+02   1.595736E+02   6.509630E+01   5.423351E+01   6.745390E+01   5.575945E+01   1.874679E+01   7.629685E+01   3.895169E+01   3.633752E+01   9.342833E+01   8.743712E+01   5.060726E+01   7.359851E+01   1.336931E+02   5.223534E+01   6.622964E+01
   4.490253E+01   5.878120E+01   3.088755E+01   7.179656E+00   1.360458E+01   1.486952E+01   1.638919E+01   3.637449E+01   1.089258E+02   7.626896E+01   4.260025E+01   2.910909E+01   2.877520E+01   6.276870E+01   5.959936E+01   4.970829E+01   2.592828E+01   1.996901E+01   4.944264E+01   1.556871E+02   1.226836E+02   9.409068E+01   4.081670E+01   3.079953E+01   1.555122E+01   8.991658E+00   9.294447E+00   1.486751E+01   2.100864E+01   1.487512E+01   3.520398E+01   5.436364E+01   4.386322E+01   5.137825E+01   1.982948E+01   4.254356E+01   5.691313E+01   1.069494E+01   6.798091E+01   5.538568E+01   1.829314E+02   4.545973E+01   4.288226E+01   2.660464E+01   1.483661E+01   1.659449E+01   2.909049E+01   2.827307E+01   1.929639E+01   3.041396E+01   3.152392E+01   3.285555E+01   1.139956E+02   4.141704E+01   3.221851E+01   9.684268E+00   6.167001E+00   2.678048E+01   5.417823E+01   6.304765E+01   3.333105E+01   5.332413E+01   8.018980E+01   1.651359E+02   4.313848E+01   2.499432E+01   1.203911E+01   2.513447E+01   3.719431E+01   3.321378E+01   2.490298E+01   5.901123E+01   6.782816E+01   1.964218E+02   3.584081E+01   3.492962E+01   3.329655E+01   2.746608E+01   2.754895E+01   1.681326E+01   4.483910E+01   3.637118E+01   9.253065E+01   6.697913E+01   1.330381E+02   5.616441E+01   1.076669E+02   1.215187E+02   7.021486E+01   4.273458E+01   4.273458E+01   6.004863E+01   3.962148E+01   3.962148E+01   7.521315E+01   2.139419E+01   2.139419E+01   3.281457E+01   3.281457E+01   3.281457E+01   5.427079E+01   5.427079E+01   5.427079E+01   2.276302E+01   2.276302E+01   2.276302E+01   2.276302E+01   2.276302E+01   2.775122E+01   2.775122E+01   2.775122E+01   2.775122E+01   2.775122E+01   2.996880E+01   2.996880E+01   2.996880E+01   2.996880E+01   2.996880E+01   2.996880E+01   2.996880E+01   7.483778E+01   7.483778E+01   7.483778E+01   7.483778E+01   7.483778E+01   7.483778E+01   7.483778E+01   7.483778E+01   7.483778E+01   7.483778E+01   5.669757E+01   5.669757E+01   5.669757E+01   5.669757E+01   5.669757E+01   5.669757E+01   5.669757E+01   5.669757E+01   5.669757E+01   2.290667E+01   2.290667E+01   2.290667E+01   2.290667E+01   2.290667E+01   2.290667E+01   2.290667E+01   6.247042E+01   6.247042E+01   6.247042E+01   6.247042E+01   6.247042E+01   3.714204E+01   3.714204E+01   3.714204E+01   3.714204E+01   5.794403E+01   5.794403E+01   5.794403E+01   1.961061E+01   1.961061E+01   7.792230E+00   7.792230E+00   1.715326E+01   1.715326E+01   4.308063E+01   2.047400E+01   3.749426E+00   3.749426E+00   3.340975E+00   9.443153E+00   1.304632E+01   1.434818E+01   3.069788E+01   2.274826E+01   1.253204E+01   5.660687E+01   6.283597E+01   3.399290E+01   6.786110E+01   4.260175E+01   5.966043E+01   2.014865E+01   1.622369E+02   9.040884E+01   9.542033E+01   4.269912E+01   2.111868E+01   2.596202E+01   9.206786E+01   2.416733E+02   4.027444E+02   3.681886E+02   6.508127E+01   2.698081E+01   8.498071E+01   5.188803E+01   2.708315E+01   8.116330E+01   8.580397E+01   2.989279E+01   1.594689E+02   1.395914E+02   7.487053E+01   6.348085E+01   6.552390E+01   3.533912E+01   5.758199E+01
   3.358703E+01   3.995007E+01   2.387600E+01   1.293322E+01   1.468751E+01   1.912117E+01   2.801175E+01   3.453352E+01   8.917204E+01   7.875478E+01   3.054291E+01   7.653057E+01   6.390717E+01   6.555704E+01   8.759645E+01   2.674828E+01   8.816576E+00   2.555744E+01   2.738017E+01   8.950275E+01   1.022933E+02   1.127841E+02   4.988976E+01   3.600623E+01   2.398784E+01   7.794781E+00   2.099612E+01   2.203006E+01   1.941453E+01   1.079608E+01   2.880727E+01   7.738350E+01   2.909542E+01   4.764858E+01   3.910772E+01   3.592636E+01   4.526027E+01   3.111782E+01   8.091312E+01   9.210763E+01   6.376662E+01   3.477069E+01   3.831593E+01   1.397653E+01   9.482315E+00   2.080721E+01   2.462801E+01   2.968670E+01   1.519027E+01   2.917796E+01   2.879155E+01   3.178985E+01   1.040744E+02   7.101462E+01   2.334364E+01   1.090610E+01   8.912634E+00   1.651420E+01   5.917279E+01   3.968641E+01   4.283124E+01   2.806635E+01   9.012371E+01   1.095474E+02   2.467601E+01   4.796109E+01   1.782794E+01   2.095339E+01   2.223750E+01   1.119853E+01   7.656189E+00   6.710316E+01   1.162189E+02   1.980756E+02   4.460535E+01   3.641759E+01   2.851094E+01   3.317740E+01   2.101592E+01   1.317165E+01   3.207126E+01   4.633299E+01   8.390063E+01   9.545322E+01   1.170514E+02   5.090945E+01   1.747469E+02   6.021796E+01   4.576549E+01   2.368414E+01   2.368414E+01   5.865484E+01   2.551551E+01   2.551551E+01   4.608028E+01   2.340129E+01   2.340129E+01   3.861999E+01   3.861999E+01   3.861999E+01   3.638465E+01   3.638465E+01   3.638465E+01   2.763745E+01   2.763745E+01   2.763745E+01   2.763745E+01   2.763745E+01   2.617966E+01   2.617966E+01   2.617966E+01   2.617966E+01   2.617966E+01   4.129360E+01   4.129360E+01   4.129360E+01   4.129360E+01   4.129360E+01   4.129360E+01   4.129360E+01   4.584119E+01   4.584119E+01   4.584119E+01   4.584119E+01   4.584119E+01   4.584119E+01   4.584119E+01   4.584119E+01   4.584119E+01   4.584119E+01   5.241327E+01   5.241327E+01   5.241327E+01   5.241327E+01   5.241327E+01   5.241327E+01   5.241327E+01   5.241327E+01   5.241327E+01   2.578765E+01   2.578765E+01   2.578765E+01   2.578765E+01   2.578765E+01   2.578765E+01   2.578765E+01   2.856667E+01   2.856667E+01   2.856667E+01   2.856667E+01   2.856667E+01   3.285567E+01   3.285567E+01   3.285567E+01   3.285567E+01   3.046601E+01   3.046601E+01   3.046601E+01   1.370294E+01   1.370294E+01   1.503473E+01   1.503473E+01   1.064778E+01   1.064778E+01   1.410473E+01   1.248433E+01   7.462857E+00   7.462857E+00   1.149823E+01   3.235057E+01   4.255379E+01   5.452847E+01   3.769542E+01   2.923433E+01   4.118081E+01   1.872492E+02   1.123465E+02   6.211298E+01   7.452729E+01   6.840645E+01   2.174079E+01   3.145426E+01   6.823201E+01   1.327741E+02   8.648063E+01   8.232108E+01   3.978806E+01   1.586173E+01   4.197350E+01   1.365209E+02   3.568580E+02   2.867344E+02   6.211665E+01   6.126819E+01   4.706258E+01   2.859964E+01   1.956209E+01   5.456305E+01   1.978496E+02   5.467202E+01   6.165559E+01   5.349227E+01   6.350256E+01   4.276683E+01   4.512239E+01   3.923136E+01   6.502432E+01
   1.584329E+01   1.895356E+01   2.040325E+01   2.560428E+01   1.700940E+01   3.353365E+01   7.019695E+01   5.826463E+01   6.941904E+01   4.155582E+01   4.367598E+01   8.943064E+01   2.363699E+01   6.069692E+01   6.420578E+01   2.056518E+01   9.032681E+00   1.904435E+01   2.554203E+01   8.761629E+01   1.450537E+02   1.902940E+02   3.889355E+01   3.840582E+01   1.254581E+01   2.039058E+01   3.414330E+01   4.373563E+01   1.505665E+01   1.902717E+01   1.337015E+01   7.957914E+01   4.966898E+01   5.414317E+01   3.278534E+01   1.670596E+01   2.734232E+01   2.945680E+01   3.955043E+01   9.210294E+01   7.867059E+01   2.901614E+01   4.243521E+01   1.207996E+01   1.526350E+01   2.078981E+01   2.808485E+01   3.722990E+01   1.900366E+01   1.313478E+01   2.337078E+01   3.910220E+01   1.202412E+02   5.095825E+01   2.382637E+01   1.092070E+01   1.141768E+01   1.434149E+01   4.834334E+01   5.094889E+01   8.577679E+01   5.600732E+01   7.220328E+01   5.810268E+01   2.406290E+01   2.331970E+01   1.403733E+01   1.447851E+01   1.015266E+01   8.123427E+00   8.354025E+00   1.391167E+01   7.663397E+01   1.818933E+02   4.648571E+01   2.678288E+01   3.910011E+01   6.405791E+01   2.949873E+01   1.543491E+01   1.852394E+01   3.179719E+01   3.635292E+01   1.204619E+02   1.625422E+02   5.199766E+01   1.231667E+02   9.987577E+01   3.730078E+01   1.740381E+01   1.740381E+01   5.244559E+01   4.193548E+01   4.193548E+01   1.817394E+01   2.378774E+01   2.378774E+01   4.121499E+01   4.121499E+01   4.121499E+01   2.548800E+01   2.548800E+01   2.548800E+01   2.550276E+01   2.550276E+01   2.550276E+01   2.550276E+01   2.550276E+01   3.821462E+01   3.821462E+01   3.821462E+01   3.821462E+01   3.821462E+01   4.305323E+01   4.305323E+01   4.305323E+01   4.305323E+01   4.305323E+01   4.305323E+01   4.305323E+01   4.169457E+01   4.169457E+01   4.169457E+01   4.169457E+01   4.169457E+01   4.169457E+01   4.169457E+01   4.169457E+01   4.169457E+01   4.169457E+01   3.526278E+01   3.526278E+01   3.526278E+01   3.526278E+01   3.526278E+01   3.526278E+01   3.526278E+01   3.526278E+01   3.526278E+01   4.617644E+01   4.617644E+01   4.617644E+01   4.617644E+01   4.617644E+01   4.617644E+01   4.617644E+01   5.530404E+01   5.530404E+01   5.530404E+01   5.530404E+01   5.530404E+01   1.554520E+01   1.554520E+01   1.554520E+01   1.554520E+01   2.181441E+01   2.181441E+01   2.181441E+01   1.387789E+01   1.387789E+01   2.687748E+01   2.687748E+01   2.405051E+01   2.405051E+01   9.863609E+00   1.022793E+01   1.139123E+01   1.139123E+01   1.598202E+01   4.161914E+01   1.007416E+02   5.998521E+01   4.684285E+01   2.034525E+01   2.553594E+01   1.782824E+02   1.171795E+02   4.902517E+01   1.528049E+02   2.176825E+02   6.124276E+01   5.461757E+01   1.427000E+02   8.891647E+01   1.071900E+02   7.570425E+01   1.288365E+01   2.507263E+01   8.024685E+01   1.028555E+02   2.296586E+02   8.807150E+01   5.067672E+01   2.812159E+01   2.576161E+01   4.843289E+01   3.662184E+01   2.115113E+01   8.318943E+01   7.015380E+01   4.338783E+01   8.492220E+01   4.902199E+01   3.926401E+01   4.808387E+01   6.348394E+01   9.360144E+01
   2.301803E+01   3.036475E+01   2.087374E+01   3.351385E+01   2.466723E+01   4.527158E+01   7.742580E+01   1.008189E+02   1.278494E+02   3.788551E+01   2.516935E+01   3.949303E+01   3.951849E+01   5.265582E+01   3.159206E+01   1.824406E+01   1.147512E+01   5.671043E+01   9.636158E+01   4.679330E+01   9.554386E+01   1.807739E+02   7.287232E+01   5.740117E+01   1.786760E+01   2.103772E+01   3.853652E+01   1.356453E+02   3.280771E+01   1.705089E+01   2.248497E+01   3.936551E+01   3.913982E+01   4.860178E+01   1.276473E+01   1.180649E+01   2.128614E+01   3.210812E+01   4.839077E+01   1.206381E+02   6.315636E+01   7.578389E+01   4.358117E+01   1.703325E+01   3.078789E+01   1.929987E+01   3.255269E+01   3.369209E+01   9.705479E+00   1.792534E+01   3.058432E+01   3.043148E+01   7.627884E+01   3.883119E+01   4.491678E+01   2.624669E+01   1.658735E+01   1.237596E+01   3.916024E+01   1.303611E+02   1.561005E+02   6.768872E+01   8.070041E+01   4.593058E+01   1.020047E+02   4.650116E+01   1.802522E+01   6.200195E+00   3.512919E+00   5.588296E+00   6.796121E+00   1.498952E+01   6.653126E+01   4.965346E+01   4.813739E+01   2.280538E+01   6.810329E+01   4.226312E+01   3.595083E+01   3.573578E+01   3.771566E+01   3.690956E+01   4.509797E+01   8.990817E+01   1.137529E+02   7.292223E+01   1.392819E+02   1.313200E+02   3.371930E+01   2.447717E+01   2.447717E+01   4.081779E+01   2.783576E+01   2.783576E+01   9.703537E+00   1.438327E+01   1.438327E+01   4.740202E+01   4.740202E+01   4.740202E+01   6.843155E+01   6.843155E+01   6.843155E+01   6.485899E+01   6.485899E+01   6.485899E+01   6.485899E+01   6.485899E+01   2.618340E+01   2.618340E+01   2.618340E+01   2.618340E+01   2.618340E+01   1.644078E+01   1.644078E+01   1.644078E+01   1.644078E+01   1.644078E+01   1.644078E+01   1.644078E+01   3.462151E+01   3.462151E+01   3.462151E+01   3.462151E+01   3.462151E+01   3.462151E+01   3.462151E+01   3.462151E+01   3.462151E+01   3.462151E+01   3.126698E+01   3.126698E+01   3.126698E+01   3.126698E+01   3.126698E+01   3.126698E+01   3.126698E+01   3.126698E+01   3.126698E+01   1.804912E+01   1.804912E+01   1.804912E+01   1.804912E+01   1.804912E+01   1.804912E+01   1.804912E+01   3.695424E+01   3.695424E+01   3.695424E+01   3.695424E+01   3.695424E+01   2.254448E+01   2.254448E+01   2.254448E+01   2.254448E+01   8.960312E+00   8.960312E+00   8.960312E+00   1.886312E+01   1.886312E+01   8.499290E+00   8.499290E+00   1.557709E+01   1.557709E+01   1.224187E+01   2.128002E+01   2.024422E+01   2.024422E+01   1.207724E+01   5.809960E+01   5.000408E+01   3.038418E+01   6.974027E+01   1.514400E+01   2.868570E+01   7.251049E+01   5.864788E+01   7.294756E+01   9.129654E+01   1.112938E+02   9.583614E+01   7.624110E+01   1.674585E+02   1.034488E+02   1.043714E+02   5.145505E+01   2.565398E+01   9.149702E+01   1.009918E+02   1.643022E+02   2.661037E+02   1.499325E+02   5.380497E+01   1.008053E+02   3.534381E+01   3.375021E+01   5.451140E+01   2.490921E+01   4.765467E+01   3.113437E+01   2.080134E+01   6.700964E+01   5.406479E+01   4.082895E+01   1.155267E+02   1.105091E+02   4.854377E+01
   1.943914E+01   2.322205E+01   2.684512E+01   6.334663E+01   3.991707E+01   8.200462E+01   7.565588E+01   8.908939E+01   8.652134E+01   3.580002E+01   6.781300E+00   8.996706E+00   3.677102E+01   2.667382E+01   2.704267E+01   2.040059E+01   1.871327E+01   3.591057E+01   4.129484E+01   5.706959E+01   9.791613E+01   1.563125E+02   4.989924E+01   4.884006E+01   2.632154E+01   3.266070E+01   4.854361E+01   1.297056E+02   3.166442E+01   3.982136E+01   1.651599E+01   3.665506E+01   1.881322E+01   3.908749E+01   1.315889E+01   4.361657E+00   1.842553E+01   2.225856E+01   5.825366E+01   7.060224E+01   6.283781E+01   5.631537E+01   2.936237E+01   1.958885E+01   9.945095E+01   6.247448E+01   6.199192E+01   1.900451E+01   2.147275E+01   1.628622E+01   3.312487E+01   5.126830E+01   6.403420E+01   9.999773E+01   1.286281E+02   4.939039E+01   2.984335E+01   2.578127E+01   7.278152E+01   5.294400E+01   2.003909E+02   1.732421E+02   9.566893E+01   3.723761E+01   6.908089E+01   8.313967E+01   1.785925E+01   1.385539E+01   7.214339E+00   7.602555E+00   1.503209E+01   1.778158E+01   3.169977E+01   5.408570E+01   1.379480E+01   3.226715E+01   6.322617E+01   8.769121E+01   7.629399E+01   6.330703E+01   7.761221E+01   1.115872E+02   4.692171E+01   1.500268E+02   4.104101E+01   2.937259E+01   5.935685E+01   1.272652E+02   2.612285E+01   4.837289E+01   4.837289E+01   4.834467E+01   1.295942E+01   1.295942E+01   9.941596E+00   2.362608E+01   2.362608E+01   1.040893E+02   1.040893E+02   1.040893E+02   8.142743E+01   8.142743E+01   8.142743E+01   2.587026E+01   2.587026E+01   2.587026E+01   2.587026E+01   2.587026E+01   1.436311E+01   1.436311E+01   1.436311E+01   1.436311E+01   1.436311E+01   1.399211E+01   1.399211E+01   1.399211E+01   1.399211E+01   1.399211E+01   1.399211E+01   1.399211E+01   2.353744E+01   2.353744E+01   2.353744E+01   2.353744E+01   2.353744E+01   2.353744E+01   2.353744E+01   2.353744E+01   2.353744E+01   2.353744E+01   4.318487E+01   4.318487E+01   4.318487E+01   4.318487E+01   4.318487E+01   4.318487E+01   4.318487E+01   4.318487E+01   4.318487E+01   2.104228E+01   2.104228E+01   2.104228E+01   2.104228E+01   2.104228E+01   2.104228E+01   2.104228E+01   3.690394E+01   3.690394E+01   3.690394E+01   3.690394E+01   3.690394E+01   3.735076E+01   3.735076E+01   3.735076E+01   3.735076E+01   1.797355E+01   1.797355E+01   1.797355E+01   3.510710E+01   3.510710E+01   2.353465E+01   2.353465E+01   1.120955E+01   1.120955E+01   9.590105E+00   2.375821E+01   8.892299E+00   8.892299E+00   2.492165E+01   4.214336E+01   2.735971E+01   2.611030E+01   4.135782E+01   2.690926E+01   2.372157E+01   4.526656E+01   3.254751E+01   4.085547E+01   1.059928E+02   9.959477E+01   9.695939E+01   2.019325E+02   1.617872E+02   1.331758E+02   1.205585E+02   5.671839E+01   3.624704E+01   1.300475E+02   7.576962E+01   8.364868E+01   1.868777E+02   8.771873E+01   1.274204E+02   7.910324E+01   3.938857E+01   5.806487E+01   4.825182E+01   2.481381E+01   3.632158E+01   3.007440E+01   4.337681E+01   6.601540E+01   5.765171E+01   7.130305E+01   1.210024E+02   8.746367E+01   3.242704E+01
   2.138377E+01   2.041368E+01   3.709633E+01   6.656656E+01   3.317296E+01   6.345967E+01   5.675050E+01   5.736351E+01   9.888641E+01   2.071469E+01   1.134879E+01   9.825746E+00   2.766904E+01   2.907495E+01   2.170876E+01   3.272260E+01   3.136169E+01   3.798516E+01   3.913095E+01   1.321804E+02   8.018797E+01   2.182236E+02   4.325989E+01   5.757181E+01   3.569595E+01   3.903751E+01   3.749970E+01   1.708642E+02   1.032002E+02   3.679296E+01   1.992875E+01   1.958350E+01   1.716505E+01   1.326647E+01   8.087322E+00   8.369318E+00   1.924611E+01   1.225983E+01   9.058002E+01   5.397012E+01   4.676552E+01   4.858160E+01   1.734177E+01   3.903569E+01   1.067822E+02   4.342418E+01   9.597429E+01   3.209554E+01   2.096437E+01   2.766576E+01   5.812756E+01   1.328476E+02   1.152536E+02   8.096831E+01   7.929288E+01   5.350218E+01   4.838601E+01   5.071739E+01   7.616371E+01   7.831196E+01   2.258739E+02   2.183796E+02   9.669316E+01   5.819147E+01   6.868362E+01   1.307997E+02   2.918672E+01   1.616310E+01   9.425714E+00   9.791884E+00   1.292183E+01   6.313769E+01   6.344454E+01   2.170777E+01   1.547956E+01   4.554998E+01   8.862269E+01   8.930293E+01   7.635349E+01   1.122644E+02   1.177398E+02   1.268540E+02   5.145274E+01   1.597745E+02   8.927187E+01   1.049082E+02   7.909145E+00   4.004031E+01   7.872895E+01   6.178505E+01   6.178505E+01   4.867212E+01   2.530384E+01   2.530384E+01   2.163464E+01   8.630749E+00   8.630749E+00   5.489501E+01   5.489501E+01   5.489501E+01   4.650109E+01   4.650109E+01   4.650109E+01   4.154939E+01   4.154939E+01   4.154939E+01   4.154939E+01   4.154939E+01   9.544251E+00   9.544251E+00   9.544251E+00   9.544251E+00   9.544251E+00   1.111235E+01   1.111235E+01   1.111235E+01   1.111235E+01   1.111235E+01   1.111235E+01   1.111235E+01   1.503844E+01   1.503844E+01   1.503844E+01   1.503844E+01   1.503844E+01   1.503844E+01   1.503844E+01   1.503844E+01   1.503844E+01   1.503844E+01   2.269563E+01   2.269563E+01   2.269563E+01   2.269563E+01   2.269563E+01   2.269563E+01   2.269563E+01   2.269563E+01   2.269563E+01   2.025831E+01   2.025831E+01   2.025831E+01   2.025831E+01   2.025831E+01   2.025831E+01   2.025831E+01   1.995596E+01   1.995596E+01   1.995596E+01   1.995596E+01   1.995596E+01   4.100121E+01   4.100121E+01   4.100121E+01   4.100121E+01   2.649408E+01   2.649408E+01   2.649408E+01   3.319004E+01   3.319004E+01   3.906586E+01   3.906586E+01   2.109995E+01   2.109995E+01   1.405468E+01   3.471776E+01   1.714120E+01   1.714120E+01   4.205563E+01   3.587551E+01   3.814443E+01   2.700691E+01   1.862087E+01   2.814398E+01   4.261417E+01   4.671841E+01   2.061985E+01   2.491000E+01   6.131523E+01   1.349608E+02   6.014753E+01   1.903530E+02   1.747156E+02   1.758786E+02   1.410476E+02   1.147006E+02   4.559978E+01   9.170734E+01   6.176270E+01   6.870895E+01   8.184800E+01   1.229192E+02   6.268370E+01   3.707447E+01   3.069368E+01   6.337575E+01   1.119195E+02   2.909435E+01   2.145440E+01   4.484714E+01   3.014791E+01   4.176500E+01   7.198029E+01   1.317590E+02   1.046752E+02   3.180210E+01   1.725416E+01
   1.419762E+01   1.792526E+01   2.596371E+01   8.631627E+01   5.923812E+01   9.769749E+01   4.968425E+01   3.766441E+01   8.115602E+01   3.811028E+01   1.916340E+01   1.992941E+01   5.427970E+01   5.060254E+01   4.518510E+01   2.282530E+01   2.661794E+01   5.334439E+01   5.418694E+01   1.799953E+02   1.762395E+02   1.120174E+02   1.651796E+01   5.835649E+01   3.491971E+01   5.195881E+01   2.764570E+01   1.865320E+02   9.942317E+01   4.892566E+01   2.800920E+01   4.317183E+01   2.302427E+01   1.020788E+01   2.207150E+01   4.760450E+00   1.555067E+01   1.971819E+01   7.051440E+01   6.939246E+01   4.307055E+01   3.317093E+01   2.039867E+01   4.069737E+01   8.906404E+01   5.757528E+01   5.856992E+01   3.750455E+01   3.296751E+01   2.446186E+01   7.472330E+01   7.401060E+01   6.526562E+01   4.903426E+01   4.279833E+01   6.345884E+01   3.209906E+01   5.698587E+01   1.017286E+02   9.915540E+01   4.076170E+02   3.300458E+02   1.643881E+02   8.130458E+01   1.060587E+02   5.041553E+01   2.549097E+01   6.935933E+00   1.798239E+01   2.724578E+01   2.488963E+01   3.408303E+01   1.294832E+02   1.353582E+01   2.056952E+01   1.027805E+01   1.137456E+02   5.538108E+01   4.285258E+01   1.031976E+02   1.303902E+02   1.962796E+02   1.156715E+02   1.239317E+02   7.477689E+01   8.984315E+01   8.881764E+00   1.948229E+01   7.759787E+01   1.840961E+02   1.840961E+02   1.423244E+02   5.124910E+01   5.124910E+01   3.857901E+01   2.411069E+01   2.411069E+01   3.849004E+01   3.849004E+01   3.849004E+01   1.707003E+01   1.707003E+01   1.707003E+01   1.168629E+01   1.168629E+01   1.168629E+01   1.168629E+01   1.168629E+01   1.208329E+01   1.208329E+01   1.208329E+01   1.208329E+01   1.208329E+01   3.445557E+01   3.445557E+01   3.445557E+01   3.445557E+01   3.445557E+01   3.445557E+01   3.445557E+01   1.543397E+01   1.543397E+01   1.543397E+01   1.543397E+01   1.543397E+01   1.543397E+01   1.543397E+01   1.543397E+01   1.543397E+01   1.543397E+01   1.249202E+01   1.249202E+01   1.249202E+01   1.249202E+01   1.249202E+01   1.249202E+01   1.249202E+01   1.249202E+01   1.249202E+01   1.906746E+01   1.906746E+01   1.906746E+01   1.906746E+01   1.906746E+01   1.906746E+01   1.906746E+01   3.708579E+01   3.708579E+01   3.708579E+01   3.708579E+01   3.708579E+01   3.132825E+01   3.132825E+01   3.132825E+01   3.132825E+01   4.853088E+01   4.853088E+01   4.853088E+01   4.801412E+01   4.801412E+01   6.474914E+01   6.474914E+01   3.373635E+01   3.373635E+01   1.222515E+01   1.618907E+01   1.330527E+01   1.330527E+01   1.795713E+01   1.067805E+01   3.175691E+01   9.373599E+00   1.557823E+01   3.938046E+01   3.197351E+01   2.014381E+01   1.060168E+01   3.440623E+01   5.707772E+01   5.710077E+01   2.552439E+01   6.734432E+01   4.421012E+01   1.264579E+02   2.089462E+02   9.205368E+01   7.231864E+01   8.271989E+01   3.348303E+01   9.854147E+01   4.094190E+01   1.536362E+02   7.049095E+01   2.324639E+01   2.374926E+01   1.232025E+02   4.033609E+02   7.681810E+01   4.563176E+01   2.507807E+01   1.190120E+01   4.935241E+01   1.433164E+02   1.303061E+02   1.108466E+02   3.398033E+01   2.784917E+01
   5.617583E+01   1.496178E+01   1.609897E+01   3.791508E+01   4.303848E+01   7.630881E+01   1.125623E+02   6.583289E+01   7.846722E+01   3.205238E+01   1.177521E+01   1.758452E+01   5.417902E+01   5.456554E+01   8.772675E+01   3.980926E+01   2.949393E+01   2.889751E+01   9.360004E+01   6.563477E+01   1.910062E+02   1.405439E+02   2.365215E+01   3.288659E+01   6.747506E+01   2.891232E+01   4.319900E+01   1.483392E+02   6.618932E+01   2.720074E+01   1.686817E+01   2.328994E+01   1.252331E+01   2.670286E+00   4.823502E+00   3.788517E+00   2.293794E+01   1.366880E+01   4.317315E+01   5.153417E+01   7.453188E+01   3.015700E+01   1.815474E+01   4.397989E+01   1.098278E+02   8.666926E+01   5.304453E+01   3.089940E+01   2.454350E+01   2.631795E+01   4.286039E+01   3.157143E+01   7.029386E+01   5.620582E+01   7.363346E+01   8.947598E+01   4.858598E+01   7.280816E+01   7.898133E+01   2.348458E+02   4.738699E+02   3.263224E+02   1.712273E+02   1.207475E+02   9.596501E+01   4.590008E+01   1.569320E+01   1.926791E+01   3.316830E+01   2.167657E+01   3.891046E+01   3.317672E+01   1.213015E+02   6.439139E+00   1.185944E+01   7.400046E+00   4.843793E+01   2.703158E+01   7.696875E+01   1.739561E+02   1.535204E+02   1.411798E+02   7.543539E+01   1.362089E+02   7.167809E+01   6.922674E+01   2.726533E+01   1.102028E+01   3.225522E+01   9.113738E+01   9.113738E+01   9.174864E+01   1.743287E+02   1.743287E+02   6.439154E+01   4.010158E+01   4.010158E+01   1.909625E+01   1.909625E+01   1.909625E+01   9.788607E+00   9.788607E+00   9.788607E+00   1.018318E+01   1.018318E+01   1.018318E+01   1.018318E+01   1.018318E+01   1.604111E+01   1.604111E+01   1.604111E+01   1.604111E+01   1.604111E+01   1.960691E+01   1.960691E+01   1.960691E+01   1.960691E+01   1.960691E+01   1.960691E+01   1.960691E+01   1.337603E+01   1.337603E+01   1.337603E+01   1.337603E+01   1.337603E+01   1.337603E+01   1.337603E+01   1.337603E+01   1.337603E+01   1.337603E+01   1.509230E+01   1.509230E+01   1.509230E+01   1.509230E+01   1.509230E+01   1.509230E+01   1.509230E+01   1.509230E+01   1.509230E+01   1.121950E+01   1.121950E+01   1.121950E+01   1.121950E+01   1.121950E+01   1.121950E+01   1.121950E+01   3.459685E+01   3.459685E+01   3.459685E+01   3.459685E+01   3.459685E+01   4.636058E+01   4.636058E+01   4.636058E+01   4.636058E+01   2.130555E+01   2.130555E+01   2.130555E+01   4.643430E+01   4.643430E+01   5.437510E+01   5.437510E+01   4.225422E+01   4.225422E+01   1.842863E+01   1.006404E+01   1.571763E+01   1.571763E+01   1.839211E+01   1.710014E+01   1.911739E+01   8.889983E+00   2.037691E+01   4.853298E+01   3.038796E+01   7.102847E+00   6.697259E+00   2.033048E+01   3.355890E+01   1.036122E+02   4.457488E+01   4.524274E+01   6.877513E+01   7.874377E+01   1.187888E+02   1.263556E+02   1.318708E+02   5.769404E+01   2.777625E+01   8.558926E+01   6.274670E+01   9.692325E+01   3.574053E+01   4.017288E+01   2.673707E+01   1.026253E+02   1.420333E+02   5.699960E+01   9.297653E+01   3.722536E+01   2.057610E+01   2.020148E+01   1.288643E+02   1.705713E+02   7.313834E+01   2.520448E+01   3.350305E+01