# LPF package for  MODFLOW-2005, generated by Flopy.
        53    -1E+30         0  
         1
         0
   0.000000E+00
         0
         0
INTERNAL               1 (207E15.6) -1 #hk layer 1                    
   2.458001E-02   3.670617E-02   2.959581E-02   2.685759E-02   2.790325E-02   9.825666E-02   2.814380E-02   3.621896E-02   3.084937E-02   6.840584E-02   1.431751E-01   9.742720E-02   2.100323E-02   3.450007E-02   4.056591E-02   8.337433E-02   9.003995E-02   1.107845E-02   5.282650E-03   1.125606E-02   2.179438E-02   2.060830E-02   1.904756E-02   1.121919E-02   1.713290E-02   2.373373E-02   6.481344E-03   2.222581E-02   3.546488E-02   1.742928E-02   3.147029E-02   1.653353E-02   1.604413E-02   2.089093E-02   1.275831E-02   4.342289E-02   9.442842E-02   2.778545E-02   1.318507E-02   1.072415E-02   7.703288E-03   7.332679E-03   1.466482E-02   9.928079E-03   2.768733E-02   8.144386E-03   1.157648E-02   5.135057E-03   4.505954E-03   9.026250E-03   2.896973E-02   1.516148E-02   4.553804E-03   2.827458E-02   1.559582E-02   1.839967E-02   2.312048E-02   3.948920E-02   5.040827E-02   1.747320E-02   1.161697E-02   1.950254E-02   1.183069E-02   3.913011E-02   4.567452E-02   8.703555E-02   2.137685E-02   2.045408E-02   9.255059E-03   1.532875E-02   7.335784E-03   1.264718E-02   5.461755E-02   3.369544E-02   3.496801E-02   1.460197E-02   2.124348E-02   2.177680E-02   2.837350E-02   2.343527E-02   1.438198E-02   3.456384E-02   1.468540E-01   3.487020E-01   1.129582E-01   5.381405E-02   3.044453E-02   4.310407E-02   7.398052E-02   3.254573E-02   3.254573E-02   6.691246E-02   6.988902E-02   6.988902E-02   3.213051E-02   9.093525E-02   9.093525E-02   2.484031E-02   2.484031E-02   2.484031E-02   2.737123E-02   2.737123E-02   2.737123E-02   1.341961E-02   1.341961E-02   1.341961E-02   1.341961E-02   1.341961E-02   9.692068E-03   9.692068E-03   9.692068E-03   9.692068E-03   9.692068E-03   1.057756E-02   1.057756E-02   1.057756E-02   1.057756E-02   1.057756E-02   1.057756E-02   1.057756E-02   1.494069E-02   1.494069E-02   1.494069E-02   1.494069E-02   1.494069E-02   1.494069E-02   1.494069E-02   1.494069E-02   1.494069E-02   1.494069E-02   2.952180E-02   2.952180E-02   2.952180E-02   2.952180E-02   2.952180E-02   2.952180E-02   2.952180E-02   2.952180E-02   2.952180E-02   1.352588E-02   1.352588E-02   1.352588E-02   1.352588E-02   1.352588E-02   1.352588E-02   1.352588E-02   4.596073E-02   4.596073E-02   4.596073E-02   4.596073E-02   4.596073E-02   5.852157E-02   5.852157E-02   5.852157E-02   5.852157E-02   4.214109E-02   4.214109E-02   4.214109E-02   2.434891E-02   2.434891E-02   5.404673E-02   5.404673E-02   1.402615E-01   1.402615E-01   1.624866E-01   1.631729E-01   1.642252E-01   1.642252E-01   1.448575E-01   4.179487E-02   1.748095E-02   2.264598E-02   2.282151E-02   1.139050E-02   1.408367E-02   8.458542E-03   1.469104E-02   8.034527E-03   1.480879E-02   6.390688E-03   5.939687E-03   6.552895E-03   1.368139E-02   1.521037E-02   7.623512E-03   5.924858E-03   5.809701E-03   1.318081E-02   1.100407E-02   1.574168E-02   1.462469E-02   2.690623E-02   1.477244E-01   1.871454E-01   2.131069E-01   1.008869E-01   4.316920E-02   1.505696E-02   2.297343E-02   3.060899E-02   1.851744E-02   1.875415E-02   2.485197E-02   4.482110E-02   1.297441E-02   1.522963E-02   1.071062E-02
   5.182370E-02   7.880497E-02   1.538683E-02   1.079934E-02   2.185615E-02   3.102764E-02   1.900298E-02   2.675895E-02   2.625352E-02   9.876399E-02   1.137239E-01   8.737139E-02   3.640277E-02   1.985727E-02   1.847321E-02   1.035490E-01   3.640404E-02   1.067998E-02   1.049147E-02   1.771035E-02   2.681570E-02   1.047781E-02   2.030861E-02   1.293353E-02   1.106536E-02   1.195692E-02   1.255115E-02   1.959163E-02   1.804785E-02   3.157445E-02   5.506391E-02   1.188610E-02   8.049265E-03   6.950472E-03   2.716255E-02   3.889533E-02   8.923346E-02   4.540095E-02   2.340778E-02   5.154206E-03   8.504721E-03   4.749289E-03   1.413830E-02   9.353989E-03   8.279389E-03   7.260634E-03   9.276268E-03   5.845658E-03   5.688699E-03   1.919669E-02   1.281656E-02   8.929056E-03   7.976434E-03   8.206447E-03   2.467368E-02   1.905069E-02   2.803524E-02   1.660799E-02   4.003917E-02   1.823709E-02   1.949525E-02   1.689480E-02   1.305426E-02   2.964933E-02   1.673884E-02   8.264185E-02   3.641357E-02   2.178920E-02   1.200191E-02   2.390558E-02   9.479692E-03   1.099820E-02   3.963896E-02   4.743648E-02   3.112300E-02   1.019837E-02   1.943518E-02   2.150384E-02   1.025152E-02   1.397189E-02   1.504443E-02   3.867767E-02   6.538053E-02   1.292679E-01   3.397114E-02   1.952417E-02   2.599771E-02   2.703298E-02   3.378863E-02   3.591959E-02   3.591959E-02   5.247539E-02   4.342497E-02   4.342497E-02   9.847233E-02   1.408530E-01   1.408530E-01   2.099558E-02   2.099558E-02   2.099558E-02   3.137969E-02   3.137969E-02   3.137969E-02   2.489498E-02   2.489498E-02   2.489498E-02   2.489498E-02   2.489498E-02   1.165860E-02   1.165860E-02   1.165860E-02   1.165860E-02   1.165860E-02   1.159410E-02   1.159410E-02   1.159410E-02   1.159410E-02   1.159410E-02   1.159410E-02   1.159410E-02   1.757007E-02   1.757007E-02   1.757007E-02   1.757007E-02   1.757007E-02   1.757007E-02   1.757007E-02   1.757007E-02   1.757007E-02   1.757007E-02   3.188493E-02   3.188493E-02   3.188493E-02   3.188493E-02   3.188493E-02   3.188493E-02   3.188493E-02   3.188493E-02   3.188493E-02   2.648146E-02   2.648146E-02   2.648146E-02   2.648146E-02   2.648146E-02   2.648146E-02   2.648146E-02   2.602565E-02   2.602565E-02   2.602565E-02   2.602565E-02   2.602565E-02   3.470838E-02   3.470838E-02   3.470838E-02   3.470838E-02   3.180053E-02   3.180053E-02   3.180053E-02   6.192990E-02   6.192990E-02   3.938173E-02   3.938173E-02   6.436910E-02   6.436910E-02   1.418191E-01   1.809153E-01   2.291192E-01   2.291192E-01   1.683900E-01   3.834388E-02   6.577490E-02   6.080837E-02   3.098156E-02   1.576701E-02   7.464763E-03   2.559575E-02   1.828674E-02   1.124824E-02   1.910347E-02   6.441853E-03   9.249073E-03   5.495430E-03   7.407329E-03   1.237769E-02   8.773196E-03   1.158769E-02   4.409352E-03   1.774370E-02   9.905686E-03   7.411216E-03   9.053118E-03   1.802639E-02   1.057235E-01   2.439557E-01   1.756439E-01   1.397151E-01   7.448953E-02   1.612657E-02   2.471667E-02   2.539539E-02   2.910526E-02   1.820623E-02   4.157298E-02   5.679831E-02   2.445018E-02   1.089102E-02   1.328176E-02
   5.514894E-02   3.468416E-02   8.957139E-03   1.003322E-02   1.536151E-02   1.562137E-02   1.931720E-02   1.872906E-02   2.153130E-02   3.638754E-02   1.252782E-01   7.153403E-02   4.270788E-02   3.773054E-02   2.316612E-02   7.332795E-02   4.895902E-02   2.053376E-02   2.457735E-02   1.480852E-02   4.560408E-02   2.100262E-02   1.739462E-02   1.394481E-02   1.416338E-02   1.026115E-02   6.853630E-03   2.471220E-02   2.583711E-02   1.817280E-02   6.629168E-02   6.013406E-03   5.177696E-03   4.896957E-03   2.746476E-02   7.586104E-02   1.065278E-01   3.744897E-02   1.749983E-02   7.682579E-03   6.919771E-03   6.493753E-03   9.971771E-03   1.166697E-02   5.923766E-03   1.459508E-02   8.688512E-03   6.187388E-03   4.388890E-03   7.235407E-03   1.148151E-02   7.477191E-03   1.366775E-02   2.249058E-02   5.860629E-02   8.477715E-02   3.054460E-02   3.865146E-02   6.879658E-02   1.460423E-02   1.351040E-02   1.373196E-02   1.005593E-02   1.992729E-02   1.396345E-02   6.286863E-02   3.732007E-02   1.836247E-02   9.429947E-03   2.261364E-02   2.435006E-02   2.212689E-02   2.174793E-02   4.330554E-02   1.969950E-02   2.693726E-02   1.756433E-02   1.665689E-02   1.220998E-02   1.642420E-02   1.986391E-02   5.042133E-02   4.496765E-02   7.468315E-02   5.019205E-02   1.627642E-02   9.724128E-03   2.835622E-02   2.601158E-02   2.338572E-02   2.338572E-02   1.320644E-02   3.739241E-02   3.739241E-02   8.204016E-02   5.573748E-02   5.573748E-02   2.428207E-02   2.428207E-02   2.428207E-02   5.661135E-02   5.661135E-02   5.661135E-02   2.339916E-02   2.339916E-02   2.339916E-02   2.339916E-02   2.339916E-02   1.729557E-02   1.729557E-02   1.729557E-02   1.729557E-02   1.729557E-02   1.298817E-02   1.298817E-02   1.298817E-02   1.298817E-02   1.298817E-02   1.298817E-02   1.298817E-02   1.386801E-02   1.386801E-02   1.386801E-02   1.386801E-02   1.386801E-02   1.386801E-02   1.386801E-02   1.386801E-02   1.386801E-02   1.386801E-02   1.672705E-02   1.672705E-02   1.672705E-02   1.672705E-02   1.672705E-02   1.672705E-02   1.672705E-02   1.672705E-02   1.672705E-02   3.888774E-02   3.888774E-02   3.888774E-02   3.888774E-02   3.888774E-02   3.888774E-02   3.888774E-02   3.936835E-02   3.936835E-02   3.936835E-02   3.936835E-02   3.936835E-02   1.875420E-02   1.875420E-02   1.875420E-02   1.875420E-02   3.388836E-02   3.388836E-02   3.388836E-02   3.237622E-02   3.237622E-02   2.063111E-02   2.063111E-02   1.896079E-02   1.896079E-02   1.353874E-01   1.283052E-01   1.758922E-01   1.758922E-01   2.433821E-01   6.243390E-02   3.049319E-02   4.814320E-02   3.987744E-02   2.129027E-02   1.453145E-02   9.731570E-03   1.160070E-02   2.314125E-02   3.868267E-02   5.277316E-03   1.128476E-02   1.043980E-02   9.176762E-03   1.640723E-02   7.225185E-03   1.568536E-02   5.979468E-03   7.202868E-03   4.586251E-03   7.076404E-03   1.027702E-02   3.466424E-02   4.164080E-02   1.390615E-01   9.331933E-02   6.999104E-02   7.950148E-02   2.732127E-02   3.390070E-02   1.479074E-02   3.491445E-02   1.536691E-02   4.230257E-02   4.512696E-02   3.903216E-02   1.920717E-02   3.008917E-02
   5.775665E-02   3.411451E-02   1.682574E-02   2.253965E-02   1.551863E-02   1.630612E-02   1.872350E-02   1.547017E-02   1.467469E-02   2.307764E-02   1.082858E-01   5.245612E-02   6.317800E-02   3.242533E-02   2.512360E-02   1.019042E-01   3.139803E-02   5.688970E-02   1.561737E-02   2.715657E-02   5.279418E-02   4.096026E-02   2.336239E-02   2.329086E-02   1.613125E-02   7.562516E-03   2.593388E-03   8.381580E-03   1.195280E-02   1.666044E-02   6.215603E-02   6.749116E-03   3.581986E-03   5.046854E-03   2.299768E-02   4.803553E-02   1.336448E-01   6.625111E-02   3.492996E-02   3.180973E-02   1.198263E-02   9.597338E-03   9.636985E-03   4.430090E-03   6.813785E-03   8.367048E-03   1.051828E-02   1.063090E-02   6.572462E-03   9.594263E-03   1.307172E-02   6.610628E-03   7.351195E-03   2.279972E-02   9.043289E-02   3.193024E-02   2.030427E-02   2.924802E-02   4.235315E-02   1.635012E-02   1.564892E-02   1.070765E-02   8.962582E-03   2.024217E-02   1.903788E-02   5.640334E-02   1.072358E-01   1.648038E-02   1.475634E-02   1.601564E-02   4.577262E-02   2.601863E-02   4.305092E-02   2.608769E-02   2.721574E-02   2.117113E-02   1.511228E-02   1.742302E-02   7.390590E-03   1.684693E-02   1.263578E-02   1.994629E-02   4.321960E-02   5.164381E-02   3.062357E-02   1.919565E-02   7.304018E-03   2.216127E-02   3.928227E-02   2.760360E-02   2.760360E-02   1.504608E-02   2.862395E-02   2.862395E-02   7.088925E-02   3.395068E-02   3.395068E-02   2.252224E-02   2.252224E-02   2.252224E-02   3.775000E-02   3.775000E-02   3.775000E-02   2.943043E-02   2.943043E-02   2.943043E-02   2.943043E-02   2.943043E-02   2.823084E-02   2.823084E-02   2.823084E-02   2.823084E-02   2.823084E-02   3.706774E-02   3.706774E-02   3.706774E-02   3.706774E-02   3.706774E-02   3.706774E-02   3.706774E-02   8.675030E-03   8.675030E-03   8.675030E-03   8.675030E-03   8.675030E-03   8.675030E-03   8.675030E-03   8.675030E-03   8.675030E-03   8.675030E-03   2.407996E-02   2.407996E-02   2.407996E-02   2.407996E-02   2.407996E-02   2.407996E-02   2.407996E-02   2.407996E-02   2.407996E-02   3.540299E-02   3.540299E-02   3.540299E-02   3.540299E-02   3.540299E-02   3.540299E-02   3.540299E-02   2.940003E-02   2.940003E-02   2.940003E-02   2.940003E-02   2.940003E-02   1.288968E-02   1.288968E-02   1.288968E-02   1.288968E-02   1.830697E-02   1.830697E-02   1.830697E-02   1.856693E-02   1.856693E-02   1.836423E-02   1.836423E-02   3.924387E-02   3.924387E-02   1.086427E-01   6.692746E-02   2.322307E-01   2.322307E-01   3.249541E-01   1.228577E-01   1.227079E-01   4.315180E-02   4.966386E-02   3.359337E-02   2.552030E-02   1.302014E-02   1.702346E-02   2.845320E-02   5.246216E-02   1.230951E-02   2.183489E-02   3.851631E-02   1.122878E-02   1.175410E-02   1.432601E-02   1.603876E-02   8.865228E-03   5.076516E-03   4.965963E-03   1.080301E-02   1.364310E-02   2.637866E-02   3.258247E-02   5.817896E-02   9.434035E-02   3.496708E-02   1.668399E-01   2.490090E-02   1.777692E-02   2.118151E-02   2.821183E-02   2.382178E-02   2.822896E-02   6.890132E-02   3.975218E-02   5.424166E-02   4.250639E-02
   5.144691E-02   3.439167E-02   2.923681E-02   1.947135E-02   2.100726E-02   2.419251E-02   1.785055E-02   2.131366E-02   8.805375E-03   1.711536E-02   5.934361E-02   7.415321E-02   6.216571E-02   3.215796E-02   2.824981E-02   1.098003E-01   2.868500E-02   6.869299E-02   1.428332E-02   6.485786E-02   8.986624E-02   7.579409E-02   7.168829E-02   9.775200E-02   1.423806E-02   8.245783E-03   4.414584E-03   6.637429E-03   7.975852E-03   1.740324E-02   3.054308E-02   1.009083E-02   7.659308E-03   7.140787E-03   1.870675E-02   4.375603E-02   1.378679E-01   9.268042E-02   1.892727E-02   1.703409E-02   1.638089E-02   1.287941E-02   5.626693E-03   7.709364E-03   9.716581E-03   4.788070E-03   1.221515E-02   2.316856E-02   1.037371E-02   1.098098E-02   2.592546E-02   1.072775E-02   1.260966E-02   1.789144E-02   4.210533E-02   1.760174E-02   2.202995E-02   4.669109E-02   4.343197E-02   2.172596E-02   1.114929E-02   1.199597E-02   8.830149E-03   9.805546E-03   5.507749E-02   3.827695E-02   6.622743E-02   5.633084E-02   3.659521E-02   1.924632E-02   3.484005E-02   2.782095E-02   2.589149E-02   5.852704E-02   4.646078E-02   1.921411E-02   3.282311E-02   2.073233E-02   1.065014E-02   1.967682E-02   1.200403E-02   5.783753E-03   2.156089E-02   1.621359E-02   2.533039E-02   2.134860E-02   1.079533E-02   2.170642E-02   3.412769E-02   2.145290E-02   2.145290E-02   1.154754E-02   3.148512E-02   3.148512E-02   4.089567E-02   1.571381E-02   1.571381E-02   6.457815E-02   6.457815E-02   6.457815E-02   3.121067E-02   3.121067E-02   3.121067E-02   1.971825E-02   1.971825E-02   1.971825E-02   1.971825E-02   1.971825E-02   1.527657E-02   1.527657E-02   1.527657E-02   1.527657E-02   1.527657E-02   4.928245E-02   4.928245E-02   4.928245E-02   4.928245E-02   4.928245E-02   4.928245E-02   4.928245E-02   1.629455E-02   1.629455E-02   1.629455E-02   1.629455E-02   1.629455E-02   1.629455E-02   1.629455E-02   1.629455E-02   1.629455E-02   1.629455E-02   1.688019E-02   1.688019E-02   1.688019E-02   1.688019E-02   1.688019E-02   1.688019E-02   1.688019E-02   1.688019E-02   1.688019E-02   4.311125E-02   4.311125E-02   4.311125E-02   4.311125E-02   4.311125E-02   4.311125E-02   4.311125E-02   6.468154E-02   6.468154E-02   6.468154E-02   6.468154E-02   6.468154E-02   3.845356E-02   3.845356E-02   3.845356E-02   3.845356E-02   1.044270E-02   1.044270E-02   1.044270E-02   4.310157E-02   4.310157E-02   9.868323E-02   9.868323E-02   6.995895E-02   6.995895E-02   8.379519E-02   9.242260E-02   1.372390E-01   1.372390E-01   2.115038E-01   1.061670E-01   6.625270E-02   9.149537E-03   3.671283E-02   2.142787E-02   2.038872E-02   2.298368E-02   1.702250E-02   2.944352E-02   4.393363E-02   1.788713E-02   7.391159E-03   1.738570E-02   1.864365E-02   1.438302E-02   1.561285E-02   3.546198E-02   6.138396E-03   7.307780E-03   5.006724E-03   6.711812E-03   1.624103E-02   1.431296E-02   7.092280E-03   2.288948E-02   1.210456E-01   5.059186E-02   1.229961E-01   1.287245E-01   2.177344E-02   2.264172E-02   3.187853E-02   4.889746E-02   1.857306E-02   1.574447E-01   9.634966E-02   8.074564E-02   3.510097E-02
   3.336833E-02   3.826529E-02   2.123901E-02   1.845788E-02   2.081091E-02   1.010862E-02   1.555532E-02   3.162121E-02   1.411180E-02   3.458898E-02   4.712630E-02   6.633741E-02   7.375974E-02   5.437640E-02   5.497332E-02   8.256289E-02   2.298146E-02   5.563794E-02   1.800140E-02   4.436252E-02   6.815019E-02   1.081626E-01   1.082695E-01   1.147331E-01   1.879159E-02   7.692064E-03   7.540457E-03   9.514836E-03   1.917413E-02   1.552845E-02   2.690266E-02   1.744941E-02   8.520368E-03   7.434974E-03   1.648948E-02   3.333412E-02   4.853487E-02   6.127854E-02   2.436353E-02   8.840074E-03   1.300924E-02   1.316041E-02   3.755883E-03   4.751585E-03   9.731396E-03   2.022609E-02   1.438055E-02   1.106531E-02   8.692741E-03   6.956623E-03   5.306870E-03   2.095208E-02   1.706135E-02   3.261229E-02   1.764640E-02   1.637688E-02   2.842035E-02   2.468324E-02   3.377868E-02   2.397220E-02   2.809532E-02   1.969985E-02   1.480613E-02   3.151540E-02   6.314922E-02   4.944255E-02   5.800779E-02   4.312423E-02   2.708026E-02   2.030770E-02   2.489170E-02   7.621616E-02   5.621691E-02   6.836555E-02   7.335239E-02   2.314310E-02   2.488030E-02   1.827725E-02   6.982564E-03   1.039843E-02   7.345945E-03   1.488125E-02   1.829133E-02   1.454577E-02   3.532844E-02   3.121965E-02   8.171583E-03   2.061240E-02   1.177279E-02   1.252647E-02   1.252647E-02   8.722664E-03   2.286224E-02   2.286224E-02   4.088405E-02   1.054423E-02   1.054423E-02   6.282784E-02   6.282784E-02   6.282784E-02   4.243423E-02   4.243423E-02   4.243423E-02   4.867762E-02   4.867762E-02   4.867762E-02   4.867762E-02   4.867762E-02   2.185390E-02   2.185390E-02   2.185390E-02   2.185390E-02   2.185390E-02   5.510988E-02   5.510988E-02   5.510988E-02   5.510988E-02   5.510988E-02   5.510988E-02   5.510988E-02   1.679900E-02   1.679900E-02   1.679900E-02   1.679900E-02   1.679900E-02   1.679900E-02   1.679900E-02   1.679900E-02   1.679900E-02   1.679900E-02   1.496229E-02   1.496229E-02   1.496229E-02   1.496229E-02   1.496229E-02   1.496229E-02   1.496229E-02   1.496229E-02   1.496229E-02   3.636066E-02   3.636066E-02   3.636066E-02   3.636066E-02   3.636066E-02   3.636066E-02   3.636066E-02   3.507939E-02   3.507939E-02   3.507939E-02   3.507939E-02   3.507939E-02   2.422091E-02   2.422091E-02   2.422091E-02   2.422091E-02   4.056025E-02   4.056025E-02   4.056025E-02   2.598123E-02   2.598123E-02   3.098289E-02   3.098289E-02   5.035550E-02   5.035550E-02   5.283389E-02   1.197586E-01   9.816416E-02   9.816416E-02   1.216880E-01   7.270561E-02   3.581243E-02   3.449534E-02   2.353900E-02   2.053511E-02   1.551660E-02   6.420179E-02   1.339883E-02   1.886347E-02   5.905958E-02   3.564143E-02   1.164056E-02   2.239265E-02   1.475784E-02   1.294870E-02   1.772236E-02   4.335135E-02   8.083969E-03   1.167690E-02   1.373506E-02   5.344835E-03   1.840260E-02   1.721130E-02   9.589438E-03   4.537155E-02   1.622129E-01   1.091173E-01   1.440921E-01   1.015933E-01   4.496232E-02   1.502025E-02   2.018596E-02   2.296894E-02   3.001272E-02   1.115022E-01   2.388749E-01   8.221643E-02   4.134177E-02
   3.981953E-02   3.901342E-02   3.222734E-02   5.000974E-02   2.341974E-02   1.620029E-02   1.418748E-02   2.196678E-02   1.142433E-02   4.415264E-02   2.026750E-02   3.454816E-02   9.568034E-02   2.888065E-02   5.484360E-02   1.476717E-01   5.350146E-02   5.503406E-02   2.397932E-02   6.389248E-02   7.818995E-02   1.105895E-01   2.616866E-01   1.538285E-01   3.372139E-02   1.886008E-02   6.746110E-03   9.377654E-03   1.121612E-02   6.940471E-03   3.661741E-02   1.376762E-02   1.251150E-02   1.204653E-02   2.569567E-02   5.449409E-02   2.930891E-02   5.848343E-02   2.570737E-02   1.235213E-02   1.387062E-02   9.840823E-03   7.594250E-03   4.243162E-03   1.216418E-02   1.725680E-02   9.622493E-03   1.391645E-02   5.692807E-03   6.877786E-03   4.322819E-03   5.939724E-03   1.434366E-02   2.446936E-02   1.192178E-02   1.053660E-02   2.399900E-02   2.253647E-02   5.052990E-02   1.930961E-02   3.094166E-02   4.488569E-02   2.053683E-02   2.319620E-02   6.720463E-02   5.184710E-02   9.014752E-02   9.966958E-02   2.861202E-02   2.144750E-02   1.520822E-02   8.925058E-02   4.484727E-02   6.281651E-02   1.062081E-01   3.186997E-02   1.050119E-02   2.391611E-02   6.522135E-03   4.780835E-03   3.208840E-03   1.336870E-02   1.718344E-02   1.175800E-02   1.528816E-02   1.762738E-02   1.171684E-02   1.290858E-02   1.976427E-02   2.921875E-02   2.921875E-02   2.107422E-02   3.801234E-02   3.801234E-02   8.526728E-02   2.231498E-02   2.231498E-02   6.879126E-02   6.879126E-02   6.879126E-02   5.113811E-02   5.113811E-02   5.113811E-02   2.116439E-02   2.116439E-02   2.116439E-02   2.116439E-02   2.116439E-02   3.013501E-02   3.013501E-02   3.013501E-02   3.013501E-02   3.013501E-02   5.480571E-02   5.480571E-02   5.480571E-02   5.480571E-02   5.480571E-02   5.480571E-02   5.480571E-02   1.936544E-02   1.936544E-02   1.936544E-02   1.936544E-02   1.936544E-02   1.936544E-02   1.936544E-02   1.936544E-02   1.936544E-02   1.936544E-02   1.915784E-02   1.915784E-02   1.915784E-02   1.915784E-02   1.915784E-02   1.915784E-02   1.915784E-02   1.915784E-02   1.915784E-02   3.441798E-02   3.441798E-02   3.441798E-02   3.441798E-02   3.441798E-02   3.441798E-02   3.441798E-02   2.395652E-02   2.395652E-02   2.395652E-02   2.395652E-02   2.395652E-02   4.676262E-02   4.676262E-02   4.676262E-02   4.676262E-02   4.014014E-02   4.014014E-02   4.014014E-02   3.682911E-02   3.682911E-02   3.997454E-02   3.997454E-02   3.940683E-02   3.940683E-02   5.640886E-02   8.168088E-02   5.548250E-02   5.548250E-02   1.253635E-01   5.710493E-02   3.931247E-02   1.731182E-02   2.215668E-02   1.403961E-02   1.430729E-02   3.595639E-02   5.879316E-03   1.704474E-02   5.249716E-02   3.769664E-02   1.518518E-02   1.385881E-02   1.444368E-02   1.255064E-02   3.202608E-02   7.281222E-02   1.016907E-02   2.860285E-02   1.336093E-02   9.242953E-03   3.520529E-02   1.334761E-02   1.481013E-02   8.495002E-02   1.227323E-01   1.679452E-01   2.938007E-01   1.026073E-01   6.775077E-02   1.447161E-02   1.493904E-02   2.029110E-02   4.296816E-02   1.116840E-01   2.394919E-01   9.761934E-02   3.642434E-02
   5.765598E-02   2.875548E-02   7.597201E-02   8.396467E-02   2.138707E-02   1.825147E-02   1.241477E-02   1.567625E-02   6.232983E-03   2.724987E-02   2.377936E-02   2.916558E-02   5.214294E-02   2.278347E-02   2.631569E-02   6.119061E-02   4.710916E-02   3.112880E-02   4.729682E-02   5.085365E-02   4.906226E-02   6.675751E-02   3.476878E-01   1.201344E-01   3.652437E-02   1.735113E-02   6.941625E-03   1.120151E-02   1.207757E-02   2.783028E-02   2.989550E-02   1.781892E-02   1.172615E-02   1.368779E-02   1.338418E-02   5.171420E-02   2.121239E-02   6.934013E-02   4.043089E-02   9.895527E-03   1.191038E-02   8.318864E-03   7.268924E-03   8.066004E-03   2.012958E-02   1.248335E-02   2.144426E-02   1.442201E-02   1.089846E-02   6.494176E-03   6.452385E-03   8.743436E-03   6.233812E-02   5.318328E-02   1.414602E-02   8.998436E-03   3.756365E-02   3.348168E-02   5.008268E-02   3.288704E-02   3.213755E-02   7.617737E-02   4.276588E-02   4.459032E-02   2.131474E-02   3.919704E-02   5.598146E-02   5.341818E-02   4.884705E-02   2.280318E-02   5.349478E-02   4.248499E-02   5.743195E-02   6.389607E-02   1.143380E-01   8.346600E-02   1.756850E-02   3.700450E-02   5.623259E-03   4.146053E-03   2.336819E-03   6.945189E-03   8.818172E-03   1.392968E-02   1.290182E-02   2.013340E-02   1.852686E-02   1.009893E-02   1.369164E-02   2.980722E-02   2.980722E-02   2.076564E-02   5.970451E-02   5.970451E-02   7.171712E-02   5.321008E-02   5.321008E-02   5.387408E-02   5.387408E-02   5.387408E-02   8.110248E-02   8.110248E-02   8.110248E-02   1.266107E-02   1.266107E-02   1.266107E-02   1.266107E-02   1.266107E-02   5.354999E-02   5.354999E-02   5.354999E-02   5.354999E-02   5.354999E-02   6.746578E-02   6.746578E-02   6.746578E-02   6.746578E-02   6.746578E-02   6.746578E-02   6.746578E-02   2.539201E-02   2.539201E-02   2.539201E-02   2.539201E-02   2.539201E-02   2.539201E-02   2.539201E-02   2.539201E-02   2.539201E-02   2.539201E-02   2.121775E-02   2.121775E-02   2.121775E-02   2.121775E-02   2.121775E-02   2.121775E-02   2.121775E-02   2.121775E-02   2.121775E-02   1.508333E-02   1.508333E-02   1.508333E-02   1.508333E-02   1.508333E-02   1.508333E-02   1.508333E-02   1.453590E-02   1.453590E-02   1.453590E-02   1.453590E-02   1.453590E-02   1.362266E-02   1.362266E-02   1.362266E-02   1.362266E-02   2.604534E-02   2.604534E-02   2.604534E-02   6.176369E-02   6.176369E-02   5.596009E-02   5.596009E-02   3.229358E-02   3.229358E-02   6.671196E-02   5.700863E-02   2.352183E-02   2.352183E-02   5.908612E-02   3.847083E-02   4.432215E-02   1.806121E-02   1.343021E-02   3.635360E-02   2.319888E-02   7.477696E-02   1.051283E-02   3.613392E-02   5.077322E-02   2.770587E-02   1.049237E-02   5.040035E-03   1.543504E-02   2.502026E-02   5.392268E-02   6.089003E-02   2.387535E-02   8.644622E-02   4.129937E-02   2.327931E-02   8.138677E-02   1.908181E-02   1.327490E-02   7.658421E-02   1.026088E-01   1.510153E-01   2.088832E-01   9.773767E-02   6.602679E-02   9.717215E-03   1.477163E-02   1.578566E-02   5.171525E-02   1.465423E-01   2.044284E-01   4.624448E-02   4.467291E-02
   2.945194E-02   2.271173E-02   1.414835E-01   8.939803E-02   1.817537E-02   8.905851E-03   1.205213E-02   8.740511E-03   1.323609E-02   1.930128E-02   2.376846E-02   3.567325E-02   2.377127E-02   3.264226E-02   2.736958E-02   3.115688E-02   7.626496E-02   6.040714E-02   5.698638E-02   9.450393E-02   7.495859E-02   3.915413E-02   1.501005E-01   1.097586E-01   2.951088E-02   1.420668E-02   1.022717E-02   1.387228E-02   1.118933E-02   4.664623E-02   3.065999E-02   4.517099E-02   2.328292E-02   8.449920E-03   1.635219E-02   4.348829E-02   2.596726E-02   7.674393E-02   4.143241E-02   1.187851E-02   1.232893E-02   8.842207E-03   9.316792E-03   5.375545E-03   4.342184E-02   9.850456E-03   1.977660E-02   1.438455E-02   1.514683E-02   8.795830E-03   5.171332E-03   9.349848E-03   3.788367E-02   8.751526E-02   1.505647E-02   1.292012E-02   3.540743E-02   4.394317E-02   4.749538E-02   7.199387E-02   3.231710E-02   9.222934E-02   6.566208E-02   1.335890E-01   4.396308E-02   3.131980E-02   5.081205E-02   5.519684E-02   3.093859E-02   1.243875E-02   7.697684E-02   2.681943E-02   6.048855E-02   2.002107E-02   3.072076E-02   3.525282E-02   2.022991E-02   1.773297E-02   4.933093E-03   3.878257E-03   2.696323E-03   7.298124E-03   1.284668E-02   2.350562E-02   1.390080E-02   2.271491E-02   9.218130E-03   1.582541E-02   1.029509E-02   1.425612E-02   1.425612E-02   2.899670E-02   1.412581E-01   1.412581E-01   4.955446E-02   4.364326E-02   4.364326E-02   3.286793E-02   3.286793E-02   3.286793E-02   4.708318E-02   4.708318E-02   4.708318E-02   4.497299E-02   4.497299E-02   4.497299E-02   4.497299E-02   4.497299E-02   6.883510E-02   6.883510E-02   6.883510E-02   6.883510E-02   6.883510E-02   7.692957E-02   7.692957E-02   7.692957E-02   7.692957E-02   7.692957E-02   7.692957E-02   7.692957E-02   5.080346E-02   5.080346E-02   5.080346E-02   5.080346E-02   5.080346E-02   5.080346E-02   5.080346E-02   5.080346E-02   5.080346E-02   5.080346E-02   1.796198E-02   1.796198E-02   1.796198E-02   1.796198E-02   1.796198E-02   1.796198E-02   1.796198E-02   1.796198E-02   1.796198E-02   1.116303E-02   1.116303E-02   1.116303E-02   1.116303E-02   1.116303E-02   1.116303E-02   1.116303E-02   3.285239E-02   3.285239E-02   3.285239E-02   3.285239E-02   3.285239E-02   1.242244E-02   1.242244E-02   1.242244E-02   1.242244E-02   2.450731E-02   2.450731E-02   2.450731E-02   3.176577E-02   3.176577E-02   5.005763E-02   5.005763E-02   4.983005E-02   4.983005E-02   8.291585E-02   3.905734E-02   3.929057E-02   3.929057E-02   3.336110E-02   2.544158E-02   2.908937E-02   3.285751E-02   4.408782E-02   4.245709E-02   3.066597E-02   2.594299E-02   1.356070E-02   2.857436E-02   1.135056E-02   2.203205E-02   1.116848E-02   1.272362E-02   1.009619E-02   3.783756E-02   5.262204E-02   1.210010E-01   5.426016E-02   8.910517E-02   1.102554E-01   5.394824E-02   3.794193E-02   1.379876E-02   4.195098E-02   8.612653E-02   1.243321E-01   1.176391E-01   2.351274E-01   1.278021E-01   4.236364E-02   1.371675E-02   1.204269E-02   1.557179E-02   5.898710E-02   7.684165E-02   1.100850E-01   4.995958E-02   2.405902E-02