# LPF package for  MODFLOW-2005, generated by Flopy.
        53    -1E+30         0  
         1
         0
   0.000000E+00
         0
         0
INTERNAL               1 (207E15.6) -1 #hk layer 1                    
   5.067775E-02   5.956550E-02   7.597218E-02   6.123335E-02   5.696825E-02   6.859978E-02   6.377346E-02   7.236505E-02   6.192784E-02   3.712192E-02   2.324794E-02   8.309718E-03   2.487423E-02   2.676106E-02   2.624534E-02   3.146747E-02   5.388552E-02   6.322990E-02   4.827321E-02   4.599192E-02   4.040987E-02   2.880995E-02   2.379962E-02   8.582367E-03   3.080079E-02   3.237469E-02   6.467691E-02   3.896583E-02   3.858628E-02   3.974181E-02   1.456779E-02   1.677090E-02   1.489918E-02   2.348931E-02   3.077408E-02   2.851366E-02   8.661221E-03   6.544827E-03   5.656074E-03   1.326050E-02   2.503366E-02   9.525431E-02   7.466519E-02   1.820322E-02   1.526623E-02   1.257761E-02   1.182018E-02   3.325977E-02   3.277492E-02   6.008298E-02   1.024515E-01   2.932949E-02   7.106950E-02   2.904030E-02   1.172252E-02   1.510753E-02   3.652760E-02   3.753241E-02   5.067251E-02   5.142680E-02   7.095750E-02   1.145826E-01   6.719122E-02   1.633051E-01   9.457215E-02   5.383094E-02   4.159582E-02   4.860730E-02   6.384924E-02   9.999280E-02   1.206284E-01   1.213202E-01   2.934324E-02   5.069983E-02   3.246588E-02   7.444195E-02   9.412301E-02   1.508090E-01   1.083867E-01   1.733267E-01   1.040098E-01   2.746298E-02   1.919721E-02   1.463740E-02   1.216905E-02   2.326933E-02   4.723716E-02   5.533417E-02   1.000022E-01   1.563218E-01   1.563218E-01   1.462619E-01   2.227372E-01   2.227372E-01   9.730982E-02   7.029773E-02   7.029773E-02   1.499764E-01   1.499764E-01   1.499764E-01   1.320731E-01   1.320731E-01   1.320731E-01   9.853254E-02   9.853254E-02   9.853254E-02   9.853254E-02   9.853254E-02   1.661157E-01   1.661157E-01   1.661157E-01   1.661157E-01   1.661157E-01   8.876330E-02   8.876330E-02   8.876330E-02   8.876330E-02   8.876330E-02   8.876330E-02   8.876330E-02   1.803057E-01   1.803057E-01   1.803057E-01   1.803057E-01   1.803057E-01   1.803057E-01   1.803057E-01   1.803057E-01   1.803057E-01   1.803057E-01   1.659215E-01   1.659215E-01   1.659215E-01   1.659215E-01   1.659215E-01   1.659215E-01   1.659215E-01   1.659215E-01   1.659215E-01   2.347382E-01   2.347382E-01   2.347382E-01   2.347382E-01   2.347382E-01   2.347382E-01   2.347382E-01   4.918212E-02   4.918212E-02   4.918212E-02   4.918212E-02   4.918212E-02   1.117891E-02   1.117891E-02   1.117891E-02   1.117891E-02   1.628268E-02   1.628268E-02   1.628268E-02   3.064943E-02   3.064943E-02   5.276388E-02   5.276388E-02   1.569801E-01   1.569801E-01   7.378946E-02   4.572302E-02   3.985466E-02   3.985466E-02   3.723598E-02   3.548520E-02   3.684402E-02   6.112808E-02   2.703305E-02   5.925095E-02   1.068007E-01   8.474810E-02   9.113690E-02   4.162858E-02   7.998820E-02   6.728749E-02   1.977300E-01   4.995850E-01   3.552315E-01   8.925881E-02   6.291725E-02   4.179017E-02   9.187224E-02   7.451353E-02   8.893586E-02   5.907771E-02   1.757947E-01   2.078335E-02   3.739621E-03   4.802040E-03   6.569102E-03   8.768359E-03   1.986010E-02   9.850065E-02   8.093644E-02   7.115063E-02   7.104376E-02   7.282993E-02   3.835081E-02   3.656738E-02   1.799818E-02   1.795981E-02   2.013120E-02
   1.427315E-02   5.578914E-02   4.480846E-02   4.188540E-02   3.793887E-02   1.205032E-01   1.293417E-01   1.355470E-01   1.010581E-01   1.889607E-02   1.448429E-02   1.329303E-02   1.638711E-02   1.656000E-02   2.533367E-02   3.675154E-02   4.687534E-02   9.266247E-02   1.002758E-01   1.016167E-01   3.934215E-02   7.876512E-02   3.104718E-02   3.285221E-02   4.013812E-02   1.051289E-01   3.841162E-02   4.222813E-02   3.042058E-02   3.147938E-02   2.186653E-02   1.272515E-02   9.709030E-03   2.164285E-02   2.985124E-02   1.458210E-02   4.255402E-03   6.167945E-03   4.067865E-03   1.309850E-02   2.694345E-02   1.024946E-01   6.148350E-02   2.583808E-02   1.423457E-02   2.142033E-02   2.334753E-02   6.044745E-02   7.153101E-02   1.222243E-01   1.354204E-01   7.869289E-02   6.276283E-02   3.599053E-02   2.822111E-02   8.867930E-03   3.175960E-02   3.444230E-02   6.009297E-02   8.517160E-02   1.688628E-01   7.681021E-02   7.522902E-02   3.847971E-01   1.259943E-01   8.243264E-02   9.076643E-02   4.686508E-02   4.820048E-02   1.324951E-01   1.391581E-01   1.097453E-01   4.228915E-02   4.500387E-02   2.119656E-02   2.737020E-02   9.449852E-02   1.343331E-01   1.393233E-01   1.120408E-01   4.387730E-02   3.211400E-02   2.389278E-02   1.393550E-02   1.913212E-02   2.600778E-02   6.983143E-02   6.095010E-02   7.167701E-02   1.913720E-01   1.913720E-01   1.895819E-01   1.838332E-01   1.838332E-01   7.138807E-02   4.636746E-02   4.636746E-02   9.043634E-02   9.043634E-02   9.043634E-02   5.637750E-02   5.637750E-02   5.637750E-02   1.199188E-01   1.199188E-01   1.199188E-01   1.199188E-01   1.199188E-01   8.857121E-02   8.857121E-02   8.857121E-02   8.857121E-02   8.857121E-02   2.643870E-01   2.643870E-01   2.643870E-01   2.643870E-01   2.643870E-01   2.643870E-01   2.643870E-01   2.515351E-01   2.515351E-01   2.515351E-01   2.515351E-01   2.515351E-01   2.515351E-01   2.515351E-01   2.515351E-01   2.515351E-01   2.515351E-01   1.849134E-01   1.849134E-01   1.849134E-01   1.849134E-01   1.849134E-01   1.849134E-01   1.849134E-01   1.849134E-01   1.849134E-01   7.487495E-02   7.487495E-02   7.487495E-02   7.487495E-02   7.487495E-02   7.487495E-02   7.487495E-02   3.268884E-02   3.268884E-02   3.268884E-02   3.268884E-02   3.268884E-02   1.216706E-02   1.216706E-02   1.216706E-02   1.216706E-02   3.532249E-02   3.532249E-02   3.532249E-02   1.954809E-02   1.954809E-02   4.289112E-02   4.289112E-02   1.973030E-01   1.973030E-01   6.909920E-02   3.335007E-02   2.693325E-02   2.693325E-02   3.011905E-02   2.596410E-02   2.759434E-02   3.051774E-02   3.103011E-02   5.897937E-02   8.274942E-02   1.334419E-01   6.157697E-02   2.494731E-02   5.431248E-02   1.120459E-01   1.691323E-01   1.415198E-01   2.880449E-01   1.063936E-01   5.353719E-02   5.063387E-02   6.583815E-02   1.114820E-01   6.930395E-02   1.930646E-01   2.211886E-01   2.189077E-02   5.941700E-03   2.674000E-03   7.725964E-03   8.368089E-03   2.119174E-02   4.987756E-02   4.035950E-02   2.985316E-02   4.568201E-02   7.815849E-02   5.742018E-02   3.161034E-02   8.121427E-03   6.947905E-03   1.607959E-02
   2.197913E-02   1.721223E-01   8.753955E-02   6.647900E-02   4.651543E-02   8.686584E-02   1.729827E-01   1.321242E-01   4.546862E-02   1.934038E-02   7.213325E-03   9.495140E-03   8.563325E-03   2.161805E-02   2.473161E-02   2.738003E-02   4.147246E-02   1.023941E-01   9.405188E-02   5.921558E-02   8.640301E-02   6.954311E-02   4.647587E-02   2.982514E-02   5.185174E-02   1.593255E-01   3.939483E-02   5.741956E-02   2.952570E-02   2.537918E-02   3.687247E-02   6.113115E-03   1.048949E-02   1.410884E-02   2.107803E-02   1.161129E-02   1.363333E-02   5.263526E-03   7.564567E-03   3.366815E-02   1.608587E-02   6.594282E-02   3.440768E-02   3.986543E-02   1.019143E-02   5.471539E-02   2.462310E-02   8.662727E-02   8.222263E-02   5.192321E-02   1.600466E-01   4.388170E-02   4.209105E-02   3.243120E-02   2.661245E-02   2.230762E-02   8.230744E-02   3.629297E-02   6.659675E-02   1.789880E-01   1.137035E-01   9.484502E-02   1.747435E-01   4.397148E-01   1.096203E-01   6.811175E-02   4.492363E-02   4.982720E-02   1.356370E-01   1.079545E-01   1.594917E-01   5.639988E-02   2.478177E-02   1.156164E-02   1.053684E-02   1.612010E-02   1.686893E-01   1.955831E-01   2.504547E-01   4.064650E-02   3.761281E-02   3.469978E-02   1.641373E-02   3.042269E-02   2.642719E-02   3.589838E-02   1.157343E-01   8.498222E-02   4.983683E-02   3.499233E-01   3.499233E-01   2.926783E-01   3.303141E-01   3.303141E-01   1.389407E-01   4.768622E-02   4.768622E-02   5.993805E-02   5.993805E-02   5.993805E-02   5.543844E-02   5.543844E-02   5.543844E-02   1.487700E-01   1.487700E-01   1.487700E-01   1.487700E-01   1.487700E-01   1.531740E-01   1.531740E-01   1.531740E-01   1.531740E-01   1.531740E-01   1.113980E-01   1.113980E-01   1.113980E-01   1.113980E-01   1.113980E-01   1.113980E-01   1.113980E-01   3.815123E-01   3.815123E-01   3.815123E-01   3.815123E-01   3.815123E-01   3.815123E-01   3.815123E-01   3.815123E-01   3.815123E-01   3.815123E-01   2.014821E-01   2.014821E-01   2.014821E-01   2.014821E-01   2.014821E-01   2.014821E-01   2.014821E-01   2.014821E-01   2.014821E-01   7.987476E-02   7.987476E-02   7.987476E-02   7.987476E-02   7.987476E-02   7.987476E-02   7.987476E-02   1.451711E-02   1.451711E-02   1.451711E-02   1.451711E-02   1.451711E-02   7.433986E-03   7.433986E-03   7.433986E-03   7.433986E-03   9.053697E-03   9.053697E-03   9.053697E-03   9.166108E-03   9.166108E-03   3.415925E-02   3.415925E-02   5.639214E-02   5.639214E-02   5.263999E-02   8.282834E-03   2.005467E-02   2.005467E-02   1.711217E-02   1.500829E-02   2.894757E-02   2.149864E-02   2.427725E-02   4.025582E-02   5.170114E-02   2.872438E-02   2.467916E-02   4.280761E-02   1.021960E-01   2.038516E-01   9.757728E-02   1.307405E-01   2.744230E-01   1.863115E-01   7.192225E-02   1.543372E-01   5.829749E-02   6.765522E-02   4.583022E-02   1.300721E-01   1.101378E-01   1.958059E-02   9.731288E-03   3.642552E-03   8.941391E-03   7.895767E-03   1.319647E-02   3.565099E-02   2.887459E-02   3.382965E-02   4.512973E-02   3.613478E-02   2.881499E-02   2.497732E-02   1.194577E-02   3.929051E-03   2.684252E-02
   8.243910E-02   4.393145E-02   3.817276E-02   3.948152E-02   3.365318E-02   6.044186E-02   1.042882E-01   1.873620E-01   7.813147E-02   2.131685E-02   5.049744E-03   5.710184E-03   2.128645E-02   2.166037E-02   1.826161E-02   1.078878E-02   2.767683E-02   3.291027E-02   1.589280E-01   3.084948E-02   4.494638E-02   2.674837E-02   6.832130E-02   6.370206E-02   2.712591E-02   7.315631E-02   5.306138E-02   7.177947E-02   4.024126E-02   1.818642E-02   2.632166E-02   1.408105E-02   1.971279E-02   2.860056E-02   2.741306E-02   1.732315E-02   1.756480E-02   7.177181E-03   5.870017E-03   4.015928E-02   2.357278E-02   3.720395E-02   3.347367E-02   2.257168E-02   1.336213E-02   2.683781E-02   2.040292E-02   5.751522E-02   9.726150E-02   6.246275E-02   9.852728E-02   4.003867E-02   5.263790E-02   2.801188E-02   1.665981E-02   1.827586E-02   9.245178E-02   4.307126E-02   6.287295E-02   1.330790E-01   1.162299E-01   6.262884E-02   1.715240E-01   2.294320E-01   1.189647E-01   6.411240E-02   3.727157E-02   2.496230E-02   1.075696E-01   6.651297E-02   1.029248E-01   8.008216E-02   2.126772E-02   1.772027E-02   1.424558E-02   1.541391E-02   5.304878E-02   1.303133E-01   7.882585E-02   1.442651E-02   3.149490E-02   3.604225E-02   3.657706E-02   4.198566E-02   3.473569E-02   2.311875E-02   3.490420E-02   6.320661E-02   4.574066E-02   4.402564E-01   4.402564E-01   3.351820E-01   2.276676E-01   2.276676E-01   4.370323E-02   3.210781E-02   3.210781E-02   8.278949E-02   8.278949E-02   8.278949E-02   3.366724E-02   3.366724E-02   3.366724E-02   9.151332E-02   9.151332E-02   9.151332E-02   9.151332E-02   9.151332E-02   1.110161E-01   1.110161E-01   1.110161E-01   1.110161E-01   1.110161E-01   1.039859E-01   1.039859E-01   1.039859E-01   1.039859E-01   1.039859E-01   1.039859E-01   1.039859E-01   2.183517E-01   2.183517E-01   2.183517E-01   2.183517E-01   2.183517E-01   2.183517E-01   2.183517E-01   2.183517E-01   2.183517E-01   2.183517E-01   2.485279E-01   2.485279E-01   2.485279E-01   2.485279E-01   2.485279E-01   2.485279E-01   2.485279E-01   2.485279E-01   2.485279E-01   2.596169E-02   2.596169E-02   2.596169E-02   2.596169E-02   2.596169E-02   2.596169E-02   2.596169E-02   1.014733E-02   1.014733E-02   1.014733E-02   1.014733E-02   1.014733E-02   2.583516E-03   2.583516E-03   2.583516E-03   2.583516E-03   4.172879E-03   4.172879E-03   4.172879E-03   1.313335E-02   1.313335E-02   9.329179E-03   9.329179E-03   1.912131E-02   1.912131E-02   4.895773E-02   7.503698E-03   8.471666E-03   8.471666E-03   1.723064E-02   1.733328E-02   1.859357E-02   2.205327E-02   2.277486E-02   2.356787E-02   3.563616E-02   1.888027E-02   2.437585E-02   7.574277E-02   7.231375E-02   1.201123E-01   7.908348E-02   9.406072E-02   7.385099E-02   1.722647E-01   4.867057E-02   6.956153E-02   4.173655E-02   3.093796E-02   3.406032E-02   6.208549E-02   6.401060E-02   2.801805E-02   2.319297E-02   1.048403E-02   1.588341E-02   1.102042E-02   9.976714E-03   7.066602E-02   5.819707E-02   9.197526E-02   2.896837E-02   2.941384E-02   1.165147E-02   1.787380E-02   4.102695E-03   2.218284E-03   1.497261E-02
   8.234109E-02   2.033728E-02   5.008670E-02   2.025233E-02   3.231514E-02   6.522223E-02   1.130126E-01   1.948479E-01   7.881325E-02   2.383514E-02   4.468123E-03   1.414854E-02   3.153680E-02   1.772963E-02   1.085851E-02   1.205625E-02   2.606042E-02   6.140975E-02   6.426044E-02   2.116091E-02   4.072861E-02   9.434563E-03   2.281401E-02   3.938236E-02   5.823781E-02   7.775284E-02   1.056268E-01   8.187343E-02   2.759673E-02   1.947265E-02   1.183174E-02   2.652443E-02   6.098353E-02   1.760327E-02   2.830822E-02   1.584014E-02   9.477975E-03   1.812349E-02   2.269341E-02   5.487697E-02   1.766082E-02   2.343065E-02   5.267004E-02   2.232161E-02   1.529877E-02   1.122883E-02   2.021201E-02   5.452910E-02   7.170757E-02   9.483699E-02   9.429242E-02   3.899013E-02   4.535022E-02   4.106725E-02   4.395501E-02   5.005641E-02   1.347063E-01   5.926404E-02   4.018676E-02   1.220514E-01   1.808387E-01   1.105541E-01   2.723153E-01   2.667189E-01   9.296080E-02   3.960486E-02   2.698861E-02   1.881189E-02   7.921655E-02   6.612082E-02   8.572011E-02   4.015953E-02   3.139304E-02   2.887969E-02   2.508249E-02   3.102233E-02   4.674910E-02   6.077253E-02   7.200851E-02   1.405344E-02   4.563459E-02   1.166010E-01   5.953706E-02   4.726054E-02   3.068503E-02   2.562598E-02   2.760333E-02   4.661078E-02   5.250188E-02   3.140896E-01   3.140896E-01   1.849221E-01   2.782763E-01   2.782763E-01   5.309842E-02   5.221025E-02   5.221025E-02   1.077414E-01   1.077414E-01   1.077414E-01   4.206751E-02   4.206751E-02   4.206751E-02   9.160293E-02   9.160293E-02   9.160293E-02   9.160293E-02   9.160293E-02   8.726126E-02   8.726126E-02   8.726126E-02   8.726126E-02   8.726126E-02   1.762478E-01   1.762478E-01   1.762478E-01   1.762478E-01   1.762478E-01   1.762478E-01   1.762478E-01   1.418723E-01   1.418723E-01   1.418723E-01   1.418723E-01   1.418723E-01   1.418723E-01   1.418723E-01   1.418723E-01   1.418723E-01   1.418723E-01   7.920650E-02   7.920650E-02   7.920650E-02   7.920650E-02   7.920650E-02   7.920650E-02   7.920650E-02   7.920650E-02   7.920650E-02   1.588522E-02   1.588522E-02   1.588522E-02   1.588522E-02   1.588522E-02   1.588522E-02   1.588522E-02   7.362011E-03   7.362011E-03   7.362011E-03   7.362011E-03   7.362011E-03   1.660321E-03   1.660321E-03   1.660321E-03   1.660321E-03   3.115167E-03   3.115167E-03   3.115167E-03   1.122127E-02   1.122127E-02   8.089691E-03   8.089691E-03   2.231059E-02   2.231059E-02   4.004750E-02   2.028294E-02   9.752506E-03   9.752506E-03   1.435009E-02   1.356378E-02   1.172320E-02   1.871281E-02   1.807100E-02   4.793932E-02   3.068267E-02   1.255707E-02   1.377859E-02   2.977954E-02   8.224935E-02   1.269774E-01   2.681591E-02   2.105962E-02   2.717490E-02   5.544496E-02   2.593749E-02   4.884021E-02   4.197572E-02   2.592424E-02   3.914088E-02   7.911546E-02   8.167037E-02   2.030823E-02   1.146111E-02   7.687895E-03   1.366060E-02   2.468708E-02   1.813111E-02   3.887004E-02   3.513986E-02   3.150623E-02   1.733925E-02   2.447197E-02   9.728818E-03   1.221390E-02   7.614927E-03   3.051503E-03   2.147421E-02
   9.130953E-02   3.824918E-02   3.287076E-02   2.157006E-02   2.226125E-02   1.929086E-02   8.849669E-02   1.597731E-01   1.337922E-01   1.716931E-02   1.512027E-02   6.488973E-02   2.695324E-02   2.535020E-02   1.707792E-02   9.944611E-03   1.556063E-02   2.332829E-02   2.589220E-02   3.359556E-02   3.625560E-02   1.645795E-02   1.354880E-02   7.687061E-02   5.724138E-02   1.817976E-01   1.935194E-01   9.463538E-02   2.781415E-02   3.657107E-02   1.657679E-02   5.326912E-02   6.177003E-02   2.058077E-02   1.524974E-02   1.580920E-02   1.913091E-02   1.863657E-02   2.034595E-02   2.445978E-02   1.873020E-02   2.727895E-02   1.845552E-02   1.254416E-02   1.005631E-02   5.147638E-03   2.491765E-02   3.025991E-02   6.655099E-02   3.560787E-02   4.852146E-02   8.093609E-02   6.095446E-02   1.515836E-01   5.014756E-02   6.868429E-02   3.148541E-01   8.757924E-02   5.988226E-02   4.230318E-02   1.122531E-01   7.706469E-02   1.878877E-01   1.241142E-01   1.786962E-01   1.124361E-01   4.247556E-02   2.772504E-02   4.476499E-02   4.198912E-02   3.103790E-02   2.601838E-02   1.982676E-02   1.781651E-02   3.967541E-02   3.410498E-02   5.780394E-02   7.956204E-02   4.591408E-02   1.364895E-02   2.252381E-02   8.450632E-02   1.658057E-01   3.166632E-02   2.818161E-02   2.913350E-02   4.009329E-02   7.861108E-02   6.499122E-02   1.743480E-01   1.743480E-01   1.128150E-01   1.409947E-01   1.409947E-01   1.938050E-01   6.615301E-02   6.615301E-02   7.773515E-02   7.773515E-02   7.773515E-02   4.540404E-02   4.540404E-02   4.540404E-02   9.021782E-02   9.021782E-02   9.021782E-02   9.021782E-02   9.021782E-02   4.957115E-02   4.957115E-02   4.957115E-02   4.957115E-02   4.957115E-02   1.296825E-01   1.296825E-01   1.296825E-01   1.296825E-01   1.296825E-01   1.296825E-01   1.296825E-01   4.838259E-02   4.838259E-02   4.838259E-02   4.838259E-02   4.838259E-02   4.838259E-02   4.838259E-02   4.838259E-02   4.838259E-02   4.838259E-02   5.544359E-02   5.544359E-02   5.544359E-02   5.544359E-02   5.544359E-02   5.544359E-02   5.544359E-02   5.544359E-02   5.544359E-02   1.846829E-02   1.846829E-02   1.846829E-02   1.846829E-02   1.846829E-02   1.846829E-02   1.846829E-02   1.112881E-02   1.112881E-02   1.112881E-02   1.112881E-02   1.112881E-02   2.187824E-03   2.187824E-03   2.187824E-03   2.187824E-03   2.584466E-03   2.584466E-03   2.584466E-03   1.093634E-02   1.093634E-02   8.713301E-03   8.713301E-03   3.759653E-02   3.759653E-02   3.199549E-02   3.685044E-02   2.559253E-02   2.559253E-02   7.956052E-03   2.187064E-02   1.643429E-02   2.462503E-02   1.175647E-02   2.370272E-02   1.802563E-02   5.597649E-03   2.298583E-02   2.036999E-02   3.002018E-02   8.489848E-02   2.760524E-02   1.395976E-02   3.116186E-02   1.884201E-02   2.091027E-02   8.485948E-02   3.510951E-02   5.207485E-02   7.629197E-02   9.740853E-02   6.791031E-02   2.571596E-02   2.219204E-02   6.224131E-03   8.162148E-03   2.134792E-02   1.737924E-02   2.948415E-02   3.380218E-02   2.869999E-02   1.499881E-02   3.655086E-02   7.161001E-03   7.937116E-03   6.816528E-03   6.372857E-03   3.489582E-02
   1.326794E-01   8.928175E-02   6.577577E-02   2.358818E-02   8.721853E-03   1.312176E-02   3.764158E-02   1.110558E-01   1.545138E-01   5.015004E-02   5.474616E-03   4.592852E-02   2.481790E-02   2.141757E-02   2.645114E-02   9.521777E-03   1.348720E-02   1.653641E-02   2.624040E-02   1.990340E-02   2.524927E-02   3.525928E-02   2.926763E-02   3.978861E-02   5.989080E-02   2.504112E-01   7.360556E-02   9.067304E-02   3.273241E-02   1.449718E-02   2.267903E-02   3.757107E-02   4.358482E-02   5.817136E-02   1.894039E-02   1.824564E-02   3.796491E-02   5.664944E-02   4.050330E-02   2.451376E-02   1.482620E-02   2.728005E-02   7.861808E-03   3.243242E-02   1.195301E-02   1.248304E-02   1.458764E-02   1.843095E-02   5.509744E-02   3.009271E-02   7.875182E-02   1.049963E-01   3.688109E-02   2.457656E-01   1.001531E-01   1.508800E-01   1.826624E-01   8.881189E-02   6.079593E-02   4.527524E-02   6.259182E-02   6.329270E-02   1.682996E-01   9.518892E-02   9.697080E-02   1.127065E-01   4.861559E-02   4.014509E-02   1.389920E-02   1.542059E-02   1.135394E-02   1.514057E-02   2.705752E-02   2.055976E-02   3.626398E-02   4.180879E-02   5.325722E-02   4.434428E-02   4.082373E-02   2.871772E-02   2.088065E-02   5.298358E-02   1.149567E-01   5.743152E-02   3.097240E-02   5.389692E-02   4.961283E-02   4.886573E-02   4.221193E-02   1.484219E-01   1.484219E-01   7.990637E-02   4.679476E-02   4.679476E-02   2.129005E-01   5.384831E-02   5.384831E-02   9.631270E-02   9.631270E-02   9.631270E-02   7.348519E-02   7.348519E-02   7.348519E-02   1.331934E-01   1.331934E-01   1.331934E-01   1.331934E-01   1.331934E-01   5.255912E-02   5.255912E-02   5.255912E-02   5.255912E-02   5.255912E-02   7.030004E-02   7.030004E-02   7.030004E-02   7.030004E-02   7.030004E-02   7.030004E-02   7.030004E-02   4.850088E-02   4.850088E-02   4.850088E-02   4.850088E-02   4.850088E-02   4.850088E-02   4.850088E-02   4.850088E-02   4.850088E-02   4.850088E-02   2.046274E-02   2.046274E-02   2.046274E-02   2.046274E-02   2.046274E-02   2.046274E-02   2.046274E-02   2.046274E-02   2.046274E-02   1.084628E-02   1.084628E-02   1.084628E-02   1.084628E-02   1.084628E-02   1.084628E-02   1.084628E-02   6.514107E-03   6.514107E-03   6.514107E-03   6.514107E-03   6.514107E-03   3.897546E-03   3.897546E-03   3.897546E-03   3.897546E-03   2.852245E-03   2.852245E-03   2.852245E-03   7.137390E-03   7.137390E-03   9.286049E-03   9.286049E-03   3.298488E-02   3.298488E-02   4.613544E-02   2.551472E-02   1.233003E-02   1.233003E-02   6.658015E-03   3.804770E-02   2.168569E-02   3.366480E-02   1.373684E-02   1.625203E-02   9.974782E-03   4.779324E-03   6.827264E-03   1.739573E-02   1.529775E-02   6.879181E-02   1.252021E-02   1.629979E-02   1.516378E-02   9.614221E-03   4.511799E-02   1.326669E-01   3.269049E-02   3.925607E-02   8.130367E-02   6.803212E-02   7.209609E-02   1.495799E-02   3.760080E-02   7.860252E-03   1.621455E-02   1.789860E-02   3.574940E-02   2.892893E-02   4.646546E-02   4.333870E-02   3.036950E-02   2.224362E-02   7.788424E-03   3.162415E-03   1.128888E-02   1.060744E-02   1.671237E-02
   1.726694E-01   8.512227E-02   2.599183E-02   4.354189E-02   1.230828E-02   2.363725E-02   5.266449E-02   1.034930E-01   1.007118E-01   6.001005E-02   2.096652E-02   5.422215E-02   3.668150E-02   3.189446E-02   2.629386E-02   6.081836E-03   1.494038E-02   1.309177E-02   1.586494E-02   1.635294E-02   3.247783E-02   2.640692E-02   4.042187E-02   5.232367E-02   9.557067E-02   1.475514E-01   2.786516E-02   9.767192E-02   2.841461E-02   1.081297E-02   1.533135E-02   3.803099E-02   4.412616E-02   3.518698E-02   1.473743E-02   1.347577E-02   2.608645E-02   2.268365E-02   3.929784E-02   2.875027E-02   1.654558E-02   5.775657E-03   7.233871E-03   1.761911E-02   7.613170E-03   1.407391E-02   1.973887E-02   3.405638E-02   8.844326E-02   3.797138E-02   1.004017E-01   1.004352E-01   8.425584E-02   1.847750E-01   1.901522E-01   1.585707E-01   1.698455E-01   1.807606E-01   7.719117E-02   4.312278E-02   4.125570E-02   8.694729E-02   1.493350E-01   6.052306E-02   2.052245E-01   1.619736E-01   5.415850E-02   3.414650E-02   1.322183E-02   3.206311E-02   9.548996E-03   1.959070E-02   2.709002E-02   6.518438E-02   6.064280E-02   6.632025E-02   3.861441E-02   3.414094E-02   3.374524E-02   2.264379E-02   2.385897E-02   4.078616E-02   8.654837E-02   3.911753E-02   3.167845E-02   4.526275E-02   3.980329E-02   4.036450E-02   7.381272E-02   7.677994E-02   7.677994E-02   3.397993E-02   7.145492E-02   7.145492E-02   5.621115E-02   9.639825E-02   9.639825E-02   1.035219E-01   1.035219E-01   1.035219E-01   9.467568E-02   9.467568E-02   9.467568E-02   6.366547E-02   6.366547E-02   6.366547E-02   6.366547E-02   6.366547E-02   5.509342E-02   5.509342E-02   5.509342E-02   5.509342E-02   5.509342E-02   5.748465E-02   5.748465E-02   5.748465E-02   5.748465E-02   5.748465E-02   5.748465E-02   5.748465E-02   2.635758E-02   2.635758E-02   2.635758E-02   2.635758E-02   2.635758E-02   2.635758E-02   2.635758E-02   2.635758E-02   2.635758E-02   2.635758E-02   1.790643E-02   1.790643E-02   1.790643E-02   1.790643E-02   1.790643E-02   1.790643E-02   1.790643E-02   1.790643E-02   1.790643E-02   8.589848E-03   8.589848E-03   8.589848E-03   8.589848E-03   8.589848E-03   8.589848E-03   8.589848E-03   6.555261E-03   6.555261E-03   6.555261E-03   6.555261E-03   6.555261E-03   9.701286E-03   9.701286E-03   9.701286E-03   9.701286E-03   2.844475E-03   2.844475E-03   2.844475E-03   7.359322E-03   7.359322E-03   2.189557E-02   2.189557E-02   2.646023E-02   2.646023E-02   3.171067E-02   2.933253E-02   1.265260E-02   1.265260E-02   7.130893E-03   3.640598E-02   2.111483E-02   1.071003E-02   1.446208E-02   2.743307E-02   2.446719E-02   6.608632E-03   6.801948E-03   1.227987E-02   3.571297E-02   2.342216E-02   1.173136E-02   1.422917E-02   2.015025E-02   1.343932E-02   4.992505E-02   3.272874E-02   3.566906E-02   7.727793E-02   5.020301E-02   4.678752E-02   5.925060E-02   1.149033E-02   2.296889E-02   9.170139E-03   1.715667E-02   2.877496E-02   7.327343E-02   2.628593E-02   7.911987E-02   7.253939E-02   3.096749E-02   1.018836E-02   5.147636E-03   4.806653E-03   6.619283E-03   1.561987E-02   1.157001E-02
   9.337773E-02   4.632964E-02   1.414801E-02   1.771122E-02   2.350668E-02   4.607146E-02   5.841615E-02   7.486144E-02   1.489972E-02   3.468753E-02   5.000587E-02   8.116519E-02   4.381241E-02   2.449325E-02   2.055306E-02   6.112671E-03   1.346081E-02   1.499746E-02   1.307063E-02   1.365272E-02   2.368621E-02   3.445103E-02   5.722296E-02   4.451239E-02   7.735838E-02   6.617305E-02   4.744358E-02   5.229260E-02   1.532418E-02   1.039038E-02   7.974136E-03   3.290871E-02   6.133012E-02   3.782469E-02   1.206678E-02   1.277482E-02   4.914133E-02   7.145739E-02   5.082447E-02   3.163554E-02   2.829500E-02   8.360393E-03   6.644962E-03   8.300102E-03   7.667677E-03   1.708946E-02   1.966764E-02   1.555999E-02   6.609469E-02   6.698447E-02   9.655554E-02   1.072043E-01   1.098389E-01   9.986921E-02   9.536826E-02   1.287819E-01   8.841056E-02   1.585220E-01   4.768569E-02   3.689762E-02   2.190064E-02   6.028696E-02   1.312246E-01   1.377292E-01   1.627942E-01   1.605891E-01   7.124441E-02   3.708857E-02   9.937422E-03   3.670875E-02   7.083612E-03   1.036089E-02   3.594676E-02   3.854096E-02   6.395212E-02   1.020641E-01   6.522849E-02   5.116520E-02   1.627067E-02   2.445000E-02   1.236818E-02   2.118318E-02   9.170348E-02   2.462590E-02   3.367706E-02   2.548300E-02   4.463219E-02   4.845027E-02   2.927393E-02   1.984855E-02   1.984855E-02   2.211853E-02   4.217773E-02   4.217773E-02   3.520649E-02   7.693276E-02   7.693276E-02   7.773551E-02   7.773551E-02   7.773551E-02   8.682507E-02   8.682507E-02   8.682507E-02   6.349144E-02   6.349144E-02   6.349144E-02   6.349144E-02   6.349144E-02   1.021570E-01   1.021570E-01   1.021570E-01   1.021570E-01   1.021570E-01   2.745913E-02   2.745913E-02   2.745913E-02   2.745913E-02   2.745913E-02   2.745913E-02   2.745913E-02   2.855580E-02   2.855580E-02   2.855580E-02   2.855580E-02   2.855580E-02   2.855580E-02   2.855580E-02   2.855580E-02   2.855580E-02   2.855580E-02   1.925519E-02   1.925519E-02   1.925519E-02   1.925519E-02   1.925519E-02   1.925519E-02   1.925519E-02   1.925519E-02   1.925519E-02   6.616186E-03   6.616186E-03   6.616186E-03   6.616186E-03   6.616186E-03   6.616186E-03   6.616186E-03   1.015283E-02   1.015283E-02   1.015283E-02   1.015283E-02   1.015283E-02   1.641007E-02   1.641007E-02   1.641007E-02   1.641007E-02   8.621527E-03   8.621527E-03   8.621527E-03   8.105288E-03   8.105288E-03   1.750872E-02   1.750872E-02   4.468633E-02   4.468633E-02   4.029461E-02   5.314799E-02   1.438708E-02   1.438708E-02   1.450387E-02   1.123493E-02   1.631383E-02   1.194244E-02   4.998759E-02   6.174081E-02   2.837359E-02   1.156440E-02   1.054177E-02   1.688876E-02   2.632887E-02   2.091838E-02   2.162398E-02   1.668041E-02   1.217971E-02   9.405962E-03   3.429357E-02   2.909345E-02   4.021857E-02   5.491405E-02   3.300383E-02   2.987791E-02   3.790111E-02   1.127502E-02   1.786397E-02   8.313904E-03   1.633603E-02   4.250503E-02   1.254938E-01   8.856852E-02   5.506065E-02   1.731654E-02   2.002020E-02   1.082923E-02   2.043560E-03   2.626544E-03   7.414747E-03   1.325698E-02   2.129728E-02