# PCG package for  MODFLOW-2005, generated by Flopy.
70 70 1 0
0.001 0.001 0.99 0 0 3 1.0 
