# LPF package for  MODFLOW-2005, generated by Flopy.
        53    -1E+30         0  
         1
         0
   0.000000E+00
         0
         0
INTERNAL               1 (207E15.6) -1 #hk layer 1                    
   9.795023E+01   1.637512E+02   4.114144E+01   3.613674E+01   5.000119E+01   5.092434E+01   7.196732E+01   7.154478E+01   2.073711E+01   1.950465E+01   3.270116E+01   6.692908E+01   3.273124E+01   4.709954E+01   7.759177E+01   2.312311E+01   1.846558E+01   3.366581E+01   2.502795E+01   3.557021E+01   2.482156E+01   7.663175E+01   6.994128E+01   6.910542E+01   4.611001E+01   4.195044E+01   1.262147E+02   4.935087E+01   2.052252E+01   1.791151E+01   2.363242E+01   9.801646E+00   2.124891E+01   4.250595E+01   2.530583E+01   2.577094E+01   1.262454E+01   2.628099E+01   2.888442E+01   4.351149E+01   4.371524E+01   4.773384E+01   3.361588E+01   5.301757E+01   6.565825E+01   2.425697E+01   2.651659E+01   2.711361E+01   6.898895E+01   5.138677E+01   2.350884E+01   1.793866E+01   4.243682E+01   3.454199E+01   2.950552E+01   3.786439E+01   2.494966E+01   4.312971E+01   3.270120E+01   9.307186E+00   6.470109E+00   9.581479E+00   1.100919E+01   2.335626E+01   1.479190E+01   7.269849E+01   2.307591E+01   1.574105E+01   6.034330E+01   2.011220E+01   2.949257E+01   4.462599E+01   1.286262E+01   1.279718E+01   3.972026E+01   7.229393E+01   8.535484E+01   4.721038E+01   2.821279E+01   1.425498E+01   2.809099E+01   3.198222E+01   1.185283E+01   9.390900E+00   6.669619E+00   5.761136E+00   1.895660E+01   2.269054E+01   4.108859E+00   1.503158E+01   1.503158E+01   2.647259E+00   4.266301E+00   4.266301E+00   2.120183E+00   1.756302E+00   1.756302E+00   5.344953E+00   5.344953E+00   5.344953E+00   1.880822E+01   1.880822E+01   1.880822E+01   1.672717E+01   1.672717E+01   1.672717E+01   1.672717E+01   1.672717E+01   5.835692E+01   5.835692E+01   5.835692E+01   5.835692E+01   5.835692E+01   7.513032E+01   7.513032E+01   7.513032E+01   7.513032E+01   7.513032E+01   7.513032E+01   7.513032E+01   4.130787E+01   4.130787E+01   4.130787E+01   4.130787E+01   4.130787E+01   4.130787E+01   4.130787E+01   4.130787E+01   4.130787E+01   4.130787E+01   4.029605E+01   4.029605E+01   4.029605E+01   4.029605E+01   4.029605E+01   4.029605E+01   4.029605E+01   4.029605E+01   4.029605E+01   1.123489E+02   1.123489E+02   1.123489E+02   1.123489E+02   1.123489E+02   1.123489E+02   1.123489E+02   5.668342E+01   5.668342E+01   5.668342E+01   5.668342E+01   5.668342E+01   4.000235E+01   4.000235E+01   4.000235E+01   4.000235E+01   6.068949E+00   6.068949E+00   6.068949E+00   2.207438E+00   2.207438E+00   3.786005E+00   3.786005E+00   1.549618E+01   1.549618E+01   1.274974E+01   2.386336E+01   1.481343E+01   1.481343E+01   8.069088E+00   5.594708E+00   1.147907E+00   2.074039E+00   1.718314E+00   2.377636E+00   1.103293E+01   2.426320E+01   3.194363E+01   2.667891E+01   5.552202E+01   7.104459E+00   5.896718E+00   5.765939E+00   6.513429E+00   1.743386E+01   2.083554E+01   8.343246E+00   1.062298E+01   1.734914E+01   1.707529E+01   1.706149E+01   1.244658E+01   1.470028E+01   6.269658E+01   4.115779E+01   9.101487E+00   1.543702E+01   7.901000E+00   2.026063E+01   9.157258E+00   6.311072E+00   8.739295E+00   4.605190E+00   8.722513E+00   1.415731E+01   1.886146E+01   2.145890E+01   8.527884E+00
   1.039513E+02   1.239806E+02   1.124021E+02   4.646930E+01   9.075768E+01   4.445403E+01   5.437954E+01   8.034924E+01   3.994083E+01   4.140583E+01   7.688318E+01   6.457155E+01   4.981841E+01   6.714539E+01   3.549130E+01   2.141407E+01   1.334403E+01   1.334843E+01   2.017793E+01   2.337128E+01   3.041461E+01   7.477904E+01   3.679504E+01   6.191189E+01   9.528678E+01   4.095790E+01   4.029187E+01   3.295772E+01   3.530007E+01   1.512805E+01   9.541885E+00   6.826223E+00   2.044411E+01   3.550776E+01   2.409525E+01   8.574836E+00   2.479291E+01   1.690195E+01   3.727635E+01   6.418290E+01   5.030240E+01   3.532294E+01   2.651137E+01   4.724516E+01   5.578381E+01   2.568110E+01   2.013489E+01   2.720762E+01   7.010528E+01   5.707421E+01   3.260508E+01   1.545647E+01   4.427228E+01   2.851967E+01   3.547735E+01   3.562213E+01   3.998774E+01   4.236577E+01   2.709054E+01   6.020575E+00   1.508482E+01   1.028555E+01   3.086824E+01   2.111925E+01   3.222136E+01   3.127059E+01   5.546867E+01   5.263987E+01   1.139101E+02   5.770422E+01   2.181767E+01   2.415560E+01   2.599958E+01   2.697185E+01   4.125488E+01   6.501454E+01   3.279988E+01   2.971484E+01   3.945880E+01   1.863411E+01   1.983371E+01   3.425473E+01   1.119219E+01   5.415747E+00   5.310060E+00   6.274150E+00   8.962423E+00   1.146021E+01   1.536326E+01   1.212530E+01   1.212530E+01   8.280305E+00   8.300368E+00   8.300368E+00   1.435074E+00   2.416567E+00   2.416567E+00   6.549025E+00   6.549025E+00   6.549025E+00   2.126095E+01   2.126095E+01   2.126095E+01   1.473295E+01   1.473295E+01   1.473295E+01   1.473295E+01   1.473295E+01   6.812078E+01   6.812078E+01   6.812078E+01   6.812078E+01   6.812078E+01   6.016508E+01   6.016508E+01   6.016508E+01   6.016508E+01   6.016508E+01   6.016508E+01   6.016508E+01   3.737395E+01   3.737395E+01   3.737395E+01   3.737395E+01   3.737395E+01   3.737395E+01   3.737395E+01   3.737395E+01   3.737395E+01   3.737395E+01   6.892211E+01   6.892211E+01   6.892211E+01   6.892211E+01   6.892211E+01   6.892211E+01   6.892211E+01   6.892211E+01   6.892211E+01   1.144508E+02   1.144508E+02   1.144508E+02   1.144508E+02   1.144508E+02   1.144508E+02   1.144508E+02   5.414790E+01   5.414790E+01   5.414790E+01   5.414790E+01   5.414790E+01   4.982283E+01   4.982283E+01   4.982283E+01   4.982283E+01   1.352425E+01   1.352425E+01   1.352425E+01   4.978266E+00   4.978266E+00   6.543147E+00   6.543147E+00   1.094755E+01   1.094755E+01   8.357202E+00   6.204055E+00   4.987109E+00   4.987109E+00   1.247230E+01   5.246512E+00   1.408843E+00   9.359653E-01   2.062933E+00   5.260300E+00   2.099610E+01   2.718444E+01   3.246096E+01   2.575703E+01   4.663498E+01   1.077444E+01   6.679617E+00   1.260737E+01   1.258376E+01   2.164801E+01   2.225228E+01   8.959452E+00   5.053659E+00   1.286328E+01   1.423790E+01   1.254429E+01   1.434763E+01   1.795422E+01   3.361852E+01   7.942519E+00   1.024004E+01   7.958740E+00   5.349038E+00   1.909151E+01   5.724653E+00   9.184777E+00   1.200518E+01   5.720984E+00   1.137810E+01   9.639242E+00   1.086383E+01   1.535881E+01   1.174693E+01
   1.040257E+02   3.466058E+01   3.488925E+01   5.725641E+01   2.084431E+02   2.439451E+01   7.753764E+01   3.059482E+01   3.610312E+01   3.144640E+01   5.380328E+01   2.787714E+01   5.613783E+01   1.298378E+02   1.342026E+01   9.978599E+00   8.048442E+00   1.298172E+01   4.153205E+01   2.244576E+01   3.349691E+01   8.715835E+01   2.729554E+01   3.022972E+01   4.669283E+01   2.143051E+01   4.698755E+01   3.666234E+01   1.859996E+01   8.878162E+00   3.473577E+00   7.976065E+00   4.082484E+01   4.766880E+01   2.906380E+01   5.396023E+00   1.863657E+01   2.323572E+01   8.788109E+01   6.968787E+01   9.337595E+01   1.643160E+01   4.754959E+01   4.136566E+01   2.097342E+01   2.068081E+01   3.040706E+01   4.104137E+01   8.592326E+01   5.319617E+01   2.611383E+01   2.353865E+01   3.497786E+01   5.483237E+01   3.173458E+01   3.556382E+01   5.478899E+01   2.931590E+01   2.887822E+01   7.795018E+00   2.747892E+01   2.327294E+01   2.966834E+01   2.835884E+01   4.999370E+01   2.310393E+01   3.334607E+01   4.470331E+01   1.093293E+02   6.391380E+01   1.614910E+01   1.031711E+01   4.105552E+01   3.982078E+01   3.182947E+01   1.973816E+01   2.526771E+01   1.869563E+01   3.433589E+01   2.054728E+01   2.612970E+01   1.835533E+01   7.167134E+00   1.114086E+01   3.343473E+00   3.846376E+00   4.952013E+00   1.293903E+01   1.268811E+01   3.305629E+01   3.305629E+01   3.306919E+00   5.121281E+00   5.121281E+00   1.571913E+00   2.042079E+00   2.042079E+00   9.436770E+00   9.436770E+00   9.436770E+00   1.145183E+01   1.145183E+01   1.145183E+01   1.993631E+01   1.993631E+01   1.993631E+01   1.993631E+01   1.993631E+01   3.763896E+01   3.763896E+01   3.763896E+01   3.763896E+01   3.763896E+01   9.869553E+01   9.869553E+01   9.869553E+01   9.869553E+01   9.869553E+01   9.869553E+01   9.869553E+01   6.494371E+01   6.494371E+01   6.494371E+01   6.494371E+01   6.494371E+01   6.494371E+01   6.494371E+01   6.494371E+01   6.494371E+01   6.494371E+01   5.797067E+01   5.797067E+01   5.797067E+01   5.797067E+01   5.797067E+01   5.797067E+01   5.797067E+01   5.797067E+01   5.797067E+01   1.018258E+02   1.018258E+02   1.018258E+02   1.018258E+02   1.018258E+02   1.018258E+02   1.018258E+02   5.305547E+01   5.305547E+01   5.305547E+01   5.305547E+01   5.305547E+01   7.002258E+01   7.002258E+01   7.002258E+01   7.002258E+01   3.738611E+01   3.738611E+01   3.738611E+01   6.441851E+00   6.441851E+00   5.138902E+00   5.138902E+00   1.034109E+01   1.034109E+01   8.918862E+00   8.414768E+00   6.464520E+00   6.464520E+00   6.153259E+00   5.687670E+00   3.951068E+00   2.893092E+00   3.534867E+00   1.088590E+01   6.778720E+01   2.061368E+01   2.574927E+01   2.978506E+01   3.490304E+01   9.028777E+00   1.409765E+01   1.110634E+01   1.264035E+01   2.969776E+01   3.410954E+01   1.313318E+01   1.479016E+01   1.733146E+01   2.333945E+01   8.452719E+00   1.194024E+01   3.824032E+01   1.959533E+01   1.021780E+01   1.183130E+01   4.657864E+00   5.377505E+00   1.225778E+01   6.161981E+00   9.295254E+00   1.731625E+01   9.184178E+00   1.429725E+01   1.027756E+01   1.477844E+01   1.820302E+01   1.413028E+01
   1.055690E+02   3.159098E+01   1.559804E+01   6.384468E+01   2.199677E+02   5.736320E+01   1.304729E+02   6.736722E+01   2.536298E+01   4.080832E+01   3.525477E+01   9.499080E+01   4.881813E+01   5.971643E+01   4.572671E+01   2.734460E+01   6.525650E+00   2.459056E+01   3.669893E+01   5.738703E+00   2.262161E+01   8.807990E+01   3.500520E+01   2.341722E+01   5.636718E+01   1.801474E+01   1.466230E+01   2.968384E+01   7.892460E+00   3.819632E+00   2.631956E+00   1.201405E+01   4.612939E+01   3.716513E+01   1.292444E+01   3.908942E+00   1.327661E+01   2.029729E+01   4.137448E+01   3.059764E+01   5.059327E+01   2.011280E+01   4.977447E+01   1.881677E+01   3.411867E+01   2.342360E+01   3.357507E+01   4.639059E+01   3.800290E+01   4.214111E+01   1.992443E+01   4.651392E+01   2.386146E+01   4.019749E+01   2.634883E+01   2.848158E+01   5.516663E+01   4.393337E+01   2.957693E+01   2.219262E+01   1.849697E+01   1.862386E+01   9.223412E+00   1.120928E+01   8.740945E+01   3.578620E+01   7.154050E+01   1.023462E+02   7.769782E+01   6.830518E+01   3.172878E+01   1.524250E+01   4.779333E+01   1.863628E+01   3.085798E+01   1.650487E+01   2.968361E+01   2.741350E+01   3.149303E+01   3.340819E+01   2.763641E+01   3.134245E+01   5.914014E+00   2.075938E+01   2.808896E+00   4.728954E+00   3.930412E+00   1.217872E+01   2.004448E+01   3.561967E+01   3.561967E+01   1.304417E+01   8.776060E+00   8.776060E+00   2.184844E+00   4.361702E+00   4.361702E+00   1.142425E+01   1.142425E+01   1.142425E+01   1.491575E+01   1.491575E+01   1.491575E+01   1.706276E+01   1.706276E+01   1.706276E+01   1.706276E+01   1.706276E+01   2.745912E+01   2.745912E+01   2.745912E+01   2.745912E+01   2.745912E+01   4.843441E+01   4.843441E+01   4.843441E+01   4.843441E+01   4.843441E+01   4.843441E+01   4.843441E+01   1.247504E+02   1.247504E+02   1.247504E+02   1.247504E+02   1.247504E+02   1.247504E+02   1.247504E+02   1.247504E+02   1.247504E+02   1.247504E+02   1.386602E+02   1.386602E+02   1.386602E+02   1.386602E+02   1.386602E+02   1.386602E+02   1.386602E+02   1.386602E+02   1.386602E+02   1.269343E+02   1.269343E+02   1.269343E+02   1.269343E+02   1.269343E+02   1.269343E+02   1.269343E+02   1.240265E+02   1.240265E+02   1.240265E+02   1.240265E+02   1.240265E+02   2.389417E+01   2.389417E+01   2.389417E+01   2.389417E+01   2.353920E+01   2.353920E+01   2.353920E+01   3.531001E+00   3.531001E+00   4.582442E+00   4.582442E+00   7.785283E+00   7.785283E+00   2.343942E+01   4.984433E+00   7.977317E+00   7.977317E+00   9.260687E+00   1.067784E+01   3.686994E+00   4.378573E+00   8.001871E+00   2.958382E+01   4.620419E+01   2.578771E+01   3.911651E+01   2.201152E+01   2.856418E+01   1.190736E+01   7.157442E+00   9.858090E+00   1.870330E+01   3.363192E+01   3.380927E+01   2.545022E+01   2.290967E+01   2.274469E+01   3.954908E+01   5.401807E+00   5.929461E+00   3.447092E+01   1.745098E+01   5.929331E+00   7.118634E+00   5.131586E+00   6.029553E+00   9.359411E+00   7.766537E+00   7.544740E+00   1.806820E+01   1.135074E+01   1.663887E+01   7.288375E+00   1.270384E+01   1.980764E+01   2.434133E+01
   4.595861E+01   5.737844E+01   1.324726E+01   2.787944E+01   1.570078E+02   9.291534E+01   9.292358E+01   1.812767E+01   3.086778E+01   5.160053E+01   4.310754E+01   5.359669E+01   8.935132E+01   4.927236E+01   4.826214E+01   1.359941E+01   7.932920E+00   2.139371E+01   2.304224E+01   7.350863E+00   1.684781E+01   2.008525E+01   2.864609E+01   3.221480E+01   7.962432E+01   2.828348E+01   1.333005E+01   2.772057E+01   1.056554E+01   8.071411E+00   1.026230E+01   2.175504E+01   2.425660E+01   4.059823E+01   1.191740E+01   1.309370E+01   1.088867E+01   2.197556E+01   3.537331E+01   4.503352E+01   3.744558E+01   1.299448E+01   2.757447E+01   2.960147E+01   2.276370E+01   1.362703E+01   3.190976E+01   1.871858E+01   1.482627E+01   2.483337E+01   1.946175E+01   8.108149E+01   3.033870E+01   3.097461E+01   4.180982E+01   2.666623E+01   3.546073E+01   2.418031E+01   2.008797E+01   3.113786E+01   2.272697E+01   2.196684E+01   6.430690E+00   5.094241E+00   3.958271E+01   2.836379E+01   7.637021E+01   1.038295E+02   6.683575E+01   8.279030E+01   2.987440E+01   1.370293E+01   2.408986E+01   2.992688E+01   2.765591E+01   1.761898E+01   5.930153E+00   2.294261E+01   2.748774E+01   4.227689E+01   1.541393E+01   1.121314E+01   3.833677E+00   6.898607E+00   5.379158E+00   4.386620E+00   6.008204E+00   1.238603E+01   4.168301E+01   4.116159E+01   4.116159E+01   2.319659E+01   1.199397E+01   1.199397E+01   2.222320E+00   4.576271E+00   4.576271E+00   1.221015E+01   1.221015E+01   1.221015E+01   1.299576E+01   1.299576E+01   1.299576E+01   1.644185E+01   1.644185E+01   1.644185E+01   1.644185E+01   1.644185E+01   3.840452E+01   3.840452E+01   3.840452E+01   3.840452E+01   3.840452E+01   2.185470E+01   2.185470E+01   2.185470E+01   2.185470E+01   2.185470E+01   2.185470E+01   2.185470E+01   7.869718E+01   7.869718E+01   7.869718E+01   7.869718E+01   7.869718E+01   7.869718E+01   7.869718E+01   7.869718E+01   7.869718E+01   7.869718E+01   8.110799E+01   8.110799E+01   8.110799E+01   8.110799E+01   8.110799E+01   8.110799E+01   8.110799E+01   8.110799E+01   8.110799E+01   8.557294E+01   8.557294E+01   8.557294E+01   8.557294E+01   8.557294E+01   8.557294E+01   8.557294E+01   8.035153E+01   8.035153E+01   8.035153E+01   8.035153E+01   8.035153E+01   3.454760E+01   3.454760E+01   3.454760E+01   3.454760E+01   1.910075E+01   1.910075E+01   1.910075E+01   1.850127E+00   1.850127E+00   3.204997E+00   3.204997E+00   4.447495E+00   4.447495E+00   8.440662E+00   7.810569E+00   8.245338E+00   8.245338E+00   1.308337E+01   9.254968E+00   3.848614E+00   4.775439E+00   1.609926E+01   3.598510E+01   9.474952E+01   3.488687E+01   2.831572E+01   9.553422E+00   1.369548E+01   1.272180E+01   1.348680E+01   1.867446E+01   1.773145E+01   6.462946E+01   5.149800E+01   4.655343E+01   5.505260E+01   2.372968E+01   4.764763E+01   6.928552E+00   6.575853E+00   6.664992E+00   1.366735E+01   1.483730E+01   5.820835E+00   6.473216E+00   8.781532E+00   2.032060E+01   4.833022E+00   1.285510E+01   3.193294E+01   2.622423E+01   9.577646E+00   1.158457E+01   6.354118E+00   2.494326E+01   5.094218E+01
   1.940502E+01   6.056251E+01   6.367086E+01   9.735885E+01   1.055782E+02   1.940498E+02   8.437096E+01   1.807837E+01   2.300589E+01   3.309921E+01   2.412998E+01   9.762712E+01   6.028556E+01   5.495858E+01   4.654111E+01   2.996807E+01   2.655224E+01   2.496542E+01   2.232497E+01   1.547549E+01   2.587930E+01   3.734029E+01   2.411738E+01   4.826826E+01   2.889491E+01   1.533198E+01   5.582296E+00   7.894235E+00   1.507763E+01   6.970831E+00   1.066284E+01   2.466094E+01   2.969749E+01   5.155523E+01   2.404477E+01   1.479943E+01   1.433205E+01   4.565323E+01   2.336927E+01   8.876683E+01   3.620878E+01   1.770711E+01   1.963472E+01   1.086286E+01   1.518439E+01   2.835433E+01   3.376696E+01   2.959084E+01   4.643793E+01   1.463733E+01   2.562263E+01   6.084127E+01   2.663294E+01   2.511898E+01   2.629737E+01   1.947197E+01   4.206669E+01   2.371723E+01   3.649768E+01   2.921502E+01   4.892747E+01   4.030947E+01   1.015344E+01   9.139504E+00   2.341989E+01   2.416987E+01   6.262976E+01   1.121044E+02   9.253954E+01   6.597960E+01   1.705763E+01   1.425627E+01   7.435935E+00   2.082187E+01   3.157118E+01   3.164632E+01   8.650908E+00   1.201906E+01   2.128067E+01   1.132381E+01   1.733099E+01   2.393372E+01   4.729504E+00   1.107445E+01   7.322995E+00   4.574490E+00   5.692678E+00   1.817327E+01   3.643646E+01   5.585175E+01   5.585175E+01   2.270352E+01   2.077311E+01   2.077311E+01   7.017560E+00   1.035036E+01   1.035036E+01   1.116304E+01   1.116304E+01   1.116304E+01   3.320894E+01   3.320894E+01   3.320894E+01   2.451247E+01   2.451247E+01   2.451247E+01   2.451247E+01   2.451247E+01   2.651198E+01   2.651198E+01   2.651198E+01   2.651198E+01   2.651198E+01   3.947918E+01   3.947918E+01   3.947918E+01   3.947918E+01   3.947918E+01   3.947918E+01   3.947918E+01   8.268140E+01   8.268140E+01   8.268140E+01   8.268140E+01   8.268140E+01   8.268140E+01   8.268140E+01   8.268140E+01   8.268140E+01   8.268140E+01   7.422492E+01   7.422492E+01   7.422492E+01   7.422492E+01   7.422492E+01   7.422492E+01   7.422492E+01   7.422492E+01   7.422492E+01   1.475284E+02   1.475284E+02   1.475284E+02   1.475284E+02   1.475284E+02   1.475284E+02   1.475284E+02   1.044975E+02   1.044975E+02   1.044975E+02   1.044975E+02   1.044975E+02   6.614127E+01   6.614127E+01   6.614127E+01   6.614127E+01   8.264304E+00   8.264304E+00   8.264304E+00   3.924221E+00   3.924221E+00   7.218252E+00   7.218252E+00   7.590024E+00   7.590024E+00   1.655698E+01   1.303887E+01   1.088488E+01   1.088488E+01   1.701198E+01   1.013828E+01   3.632951E+00   5.950891E+00   2.840172E+01   9.270848E+01   2.150430E+02   1.179904E+02   2.049532E+01   1.332695E+01   1.010797E+01   9.482678E+00   1.973491E+01   3.940352E+01   6.337766E+01   1.377858E+02   1.151814E+02   7.364102E+01   6.728767E+01   2.392661E+01   7.719827E+01   1.041920E+01   8.958507E+00   1.107654E+01   1.568761E+01   7.917181E+00   4.274140E+00   6.075449E+00   5.651205E+00   1.427849E+01   6.444186E+00   1.383683E+01   4.344426E+01   2.055293E+01   2.246972E+01   1.263858E+01   9.454723E+00   4.092688E+01   2.571278E+01
   3.938337E+01   6.514542E+01   7.366409E+01   5.151050E+01   5.120007E+01   8.824364E+01   7.034944E+01   3.001503E+01   2.055405E+01   3.902207E+01   2.923738E+01   1.630883E+02   4.643306E+01   7.566536E+01   5.888710E+01   5.211565E+01   2.734673E+01   2.689034E+01   2.011704E+01   1.679310E+01   2.668404E+01   7.229208E+01   2.438264E+01   2.056321E+01   2.023575E+01   1.588553E+01   2.125854E+01   3.320121E+01   1.717860E+01   2.515117E+01   2.280910E+01   1.603083E+01   8.749236E+01   6.079391E+01   3.022681E+01   1.562234E+01   2.022405E+01   2.776597E+01   1.513576E+01   1.113223E+02   5.772153E+01   2.418570E+01   2.050573E+01   1.195423E+01   1.626042E+01   4.678564E+01   6.551089E+01   3.566442E+01   3.232648E+01   7.996070E+00   1.793289E+01   4.005792E+01   2.419547E+01   1.025880E+01   4.104800E+01   3.263908E+01   3.783620E+01   1.100069E+01   8.748392E+00   7.257914E+00   1.963084E+01   9.564882E+01   1.300466E+01   7.147682E+00   9.984316E+00   2.126396E+01   3.541282E+01   1.596465E+02   1.216188E+02   5.306209E+01   7.084091E+00   6.087359E+00   8.120479E+00   1.334342E+01   3.479044E+01   3.754397E+01   1.093686E+01   1.216372E+01   1.665940E+01   6.099523E+00   1.260796E+01   1.440654E+01   9.265601E+00   1.184188E+01   9.802794E+00   8.886851E+00   7.454208E+00   1.749094E+01   2.962407E+01   3.669069E+01   3.669069E+01   3.601682E+01   1.521257E+01   1.521257E+01   1.024599E+01   2.668514E+01   2.668514E+01   2.643127E+01   2.643127E+01   2.643127E+01   3.243204E+01   3.243204E+01   3.243204E+01   1.878329E+01   1.878329E+01   1.878329E+01   1.878329E+01   1.878329E+01   5.150436E+01   5.150436E+01   5.150436E+01   5.150436E+01   5.150436E+01   5.815156E+01   5.815156E+01   5.815156E+01   5.815156E+01   5.815156E+01   5.815156E+01   5.815156E+01   6.563914E+01   6.563914E+01   6.563914E+01   6.563914E+01   6.563914E+01   6.563914E+01   6.563914E+01   6.563914E+01   6.563914E+01   6.563914E+01   1.221577E+02   1.221577E+02   1.221577E+02   1.221577E+02   1.221577E+02   1.221577E+02   1.221577E+02   1.221577E+02   1.221577E+02   4.426624E+01   4.426624E+01   4.426624E+01   4.426624E+01   4.426624E+01   4.426624E+01   4.426624E+01   6.173966E+01   6.173966E+01   6.173966E+01   6.173966E+01   6.173966E+01   2.722930E+01   2.722930E+01   2.722930E+01   2.722930E+01   1.827477E+01   1.827477E+01   1.827477E+01   7.832875E+00   7.832875E+00   6.592026E+00   6.592026E+00   1.072990E+01   1.072990E+01   1.661074E+01   5.787817E+00   1.687323E+01   1.687323E+01   2.126321E+01   8.391714E+00   3.840825E+00   6.130312E+00   9.208811E+01   2.877448E+02   2.319633E+02   9.920408E+01   4.082571E+01   2.406415E+01   7.205397E+00   1.105301E+01   1.038502E+01   5.481165E+01   6.335545E+01   6.801479E+01   1.818848E+02   1.001703E+02   1.730643E+02   1.005476E+02   5.971983E+01   1.159637E+01   6.447470E+00   5.649075E+00   6.376152E+00   6.497419E+00   4.737749E+00   7.038020E+00   1.024538E+01   7.778264E+00   9.415946E+00   3.431642E+01   2.981861E+01   3.203905E+01   5.679871E+01   7.089887E+00   1.059350E+01   1.446046E+01   2.046079E+01
   4.311104E+01   5.860150E+01   5.646618E+01   7.493684E+01   6.223281E+01   4.859536E+01   6.573960E+01   3.702755E+01   1.414372E+01   5.470966E+01   5.745707E+01   1.823531E+02   4.357644E+01   5.639458E+01   6.000796E+01   3.381050E+01   2.626102E+01   2.981347E+01   1.542667E+01   1.450829E+01   2.127912E+01   2.035888E+01   2.106548E+01   1.194860E+01   2.277616E+01   1.267783E+01   3.429069E+01   3.729526E+01   1.748879E+01   3.563695E+01   1.828651E+01   2.052460E+01   9.554102E+01   7.408346E+01   2.266224E+01   3.860000E+01   3.571097E+01   2.280092E+01   4.157693E+01   1.168761E+02   6.007734E+01   2.550227E+01   2.090051E+01   1.265012E+01   8.665579E+00   1.757967E+01   2.432165E+01   3.758414E+01   3.493605E+01   2.171212E+01   4.801834E+01   5.181371E+01   2.766314E+01   3.019902E+01   3.471817E+01   2.697121E+01   2.640342E+01   1.517428E+01   1.280402E+01   1.252872E+01   2.264584E+01   7.172994E+01   1.941469E+01   4.365974E+00   8.089989E+00   2.634498E+01   5.255978E+01   8.981733E+01   9.547817E+01   4.952357E+01   2.588563E+01   8.238040E+00   8.641461E+00   1.534305E+01   2.112318E+01   5.492809E+01   1.438718E+01   9.061984E+00   1.034825E+01   1.141329E+01   9.452121E+00   1.095446E+01   7.776690E+00   1.098129E+01   1.143151E+01   8.564770E+00   1.696543E+01   1.270086E+01   1.824519E+01   3.610093E+01   3.610093E+01   6.238225E+01   1.187183E+01   1.187183E+01   3.184389E+01   4.099361E+01   4.099361E+01   5.869184E+01   5.869184E+01   5.869184E+01   4.974838E+01   4.974838E+01   4.974838E+01   3.210910E+01   3.210910E+01   3.210910E+01   3.210910E+01   3.210910E+01   3.623207E+01   3.623207E+01   3.623207E+01   3.623207E+01   3.623207E+01   1.388040E+02   1.388040E+02   1.388040E+02   1.388040E+02   1.388040E+02   1.388040E+02   1.388040E+02   7.144965E+01   7.144965E+01   7.144965E+01   7.144965E+01   7.144965E+01   7.144965E+01   7.144965E+01   7.144965E+01   7.144965E+01   7.144965E+01   5.752604E+01   5.752604E+01   5.752604E+01   5.752604E+01   5.752604E+01   5.752604E+01   5.752604E+01   5.752604E+01   5.752604E+01   4.283150E+01   4.283150E+01   4.283150E+01   4.283150E+01   4.283150E+01   4.283150E+01   4.283150E+01   9.952745E+01   9.952745E+01   9.952745E+01   9.952745E+01   9.952745E+01   8.339717E+01   8.339717E+01   8.339717E+01   8.339717E+01   3.250154E+01   3.250154E+01   3.250154E+01   1.498989E+01   1.498989E+01   9.723372E+00   9.723372E+00   2.171141E+01   2.171141E+01   1.892011E+01   6.107262E+00   1.807907E+01   1.807907E+01   2.047225E+01   1.270072E+01   8.343400E+00   9.759349E+00   1.160764E+02   2.053179E+02   2.249785E+02   4.018308E+01   4.430706E+01   2.822195E+01   1.204287E+01   8.803622E+00   1.154700E+01   5.322743E+01   2.874084E+01   1.093517E+02   2.251878E+02   9.661449E+01   1.813359E+02   1.271134E+02   5.370851E+01   1.694151E+01   6.780760E+00   4.451801E+00   9.153955E+00   4.441871E+00   7.153972E+00   8.138977E+00   9.188249E+00   1.003918E+01   4.771626E+00   2.775030E+01   2.742828E+01   2.114956E+01   2.838844E+01   1.517836E+01   6.187665E+00   4.238065E+00   2.554699E+01
   3.610968E+01   8.241837E+01   1.095382E+02   7.257376E+01   4.125067E+01   1.798471E+01   2.254050E+01   2.862960E+01   3.386183E+01   6.702901E+01   4.435845E+01   9.234193E+01   3.676120E+01   2.957827E+01   4.713815E+01   1.293890E+01   6.668748E+01   3.665812E+01   2.211412E+01   1.974870E+01   2.308746E+01   2.401592E+01   1.478414E+01   7.999196E+00   2.827406E+01   2.538277E+01   2.032944E+01   2.857668E+01   9.962974E+00   2.864409E+01   2.082301E+01   3.882787E+01   3.316194E+01   5.467840E+01   4.773658E+01   2.984633E+01   3.210246E+01   4.011665E+01   6.064888E+01   7.285526E+01   3.766650E+01   1.341343E+01   2.517912E+01   1.150663E+01   4.985437E+00   8.022871E+00   2.336628E+01   5.596365E+01   3.312147E+01   3.539669E+01   2.615818E+01   4.108825E+01   2.030786E+01   1.484002E+01   5.834575E+01   4.396935E+01   3.098803E+01   1.887527E+01   8.154326E+00   1.217697E+01   1.194429E+01   3.015050E+01   9.486747E+00   4.887039E+00   5.557409E+00   1.084415E+01   3.221209E+01   3.916966E+01   5.743357E+01   4.346274E+01   4.071682E+01   7.336534E+00   1.612339E+01   3.441300E+01   2.569396E+01   2.246505E+01   7.227629E+00   1.049426E+01   1.928113E+01   2.109879E+01   6.027797E+00   2.670783E+01   2.225759E+01   2.120622E+01   9.728495E+00   1.540177E+01   1.862941E+01   7.661994E+00   1.528698E+01   1.973482E+01   1.973482E+01   2.248087E+01   2.194153E+01   2.194153E+01   4.159138E+01   1.309732E+02   1.309732E+02   8.319222E+01   8.319222E+01   8.319222E+01   4.811390E+01   4.811390E+01   4.811390E+01   3.709740E+01   3.709740E+01   3.709740E+01   3.709740E+01   3.709740E+01   3.065223E+01   3.065223E+01   3.065223E+01   3.065223E+01   3.065223E+01   9.330477E+01   9.330477E+01   9.330477E+01   9.330477E+01   9.330477E+01   9.330477E+01   9.330477E+01   7.260784E+01   7.260784E+01   7.260784E+01   7.260784E+01   7.260784E+01   7.260784E+01   7.260784E+01   7.260784E+01   7.260784E+01   7.260784E+01   6.942596E+01   6.942596E+01   6.942596E+01   6.942596E+01   6.942596E+01   6.942596E+01   6.942596E+01   6.942596E+01   6.942596E+01   5.154872E+01   5.154872E+01   5.154872E+01   5.154872E+01   5.154872E+01   5.154872E+01   5.154872E+01   1.229679E+02   1.229679E+02   1.229679E+02   1.229679E+02   1.229679E+02   4.943921E+01   4.943921E+01   4.943921E+01   4.943921E+01   4.903815E+01   4.903815E+01   4.903815E+01   2.774350E+01   2.774350E+01   1.054031E+01   1.054031E+01   1.329832E+01   1.329832E+01   1.892659E+01   1.514332E+01   1.172099E+01   1.172099E+01   5.315003E+01   9.567230E+00   3.416163E+01   3.405552E+01   2.039151E+02   2.418292E+02   1.066013E+02   7.017794E+01   8.017770E+01   2.196663E+01   1.294804E+01   2.204368E+01   1.893960E+01   4.075294E+01   5.222093E+01   3.379918E+01   8.563420E+01   8.838779E+01   2.584522E+02   1.976848E+02   5.606419E+01   1.629648E+01   8.515912E+00   2.372002E+00   5.435050E+00   5.644575E+00   7.200369E+00   1.378869E+01   6.691308E+00   8.345062E+00   9.263847E+00   2.246217E+01   4.316989E+01   1.408591E+01   8.993963E+00   7.638978E+00   3.745113E+00   5.088608E+00   1.138100E+01