# LPF package for  MODFLOW-2005, generated by Flopy.
        53    -1E+30         0  
         1
         0
   0.000000E+00
         0
         0
INTERNAL               1 (207E15.6) -1 #hk layer 1                    
   1.490551E-02   4.915952E-02   5.173613E-02   5.593439E-02   2.120619E-02   1.404560E-02   1.243604E-02   2.057486E-02   2.973364E-02   2.849513E-02   4.129269E-02   2.697174E-02   2.210880E-02   2.633286E-02   2.605722E-02   1.404380E-02   1.263986E-02   2.732613E-02   2.079933E-02   3.816389E-02   2.373657E-02   5.069014E-02   5.810270E-02   4.361106E-02   3.086587E-02   6.071761E-02   7.429392E-02   7.420456E-02   6.347384E-02   5.119375E-02   1.065099E-01   1.349273E-01   2.377586E-02   1.567195E-02   1.308111E-02   1.185409E-02   3.946663E-02   5.579878E-02   3.310228E-02   4.014519E-02   1.118101E-01   2.006868E-01   9.266550E-02   5.983601E-02   8.398051E-02   6.595157E-02   3.422568E-02   2.302353E-02   1.903076E-02   1.428469E-02   2.535810E-02   1.132428E-02   1.412658E-02   1.561869E-02   9.411315E-03   1.441277E-02   1.139290E-02   9.989954E-03   5.867514E-03   2.918295E-02   2.755303E-02   1.436214E-02   1.427494E-02   5.393858E-03   2.241269E-02   6.472348E-02   6.741277E-02   7.019919E-02   7.814337E-02   3.329753E-02   1.679551E-02   1.043816E-02   1.897134E-02   4.542266E-02   1.427494E-01   2.098837E-01   1.016966E-01   1.281087E-01   9.658186E-02   3.963968E-02   5.443830E-02   1.874345E-02   1.355680E-02   2.332152E-02   7.149835E-03   6.086514E-03   4.541557E-03   5.481065E-03   1.421186E-02   2.000559E-02   2.000559E-02   1.521915E-02   3.610458E-02   3.610458E-02   3.044707E-02   3.579240E-02   3.579240E-02   1.441302E-02   1.441302E-02   1.441302E-02   2.255014E-02   2.255014E-02   2.255014E-02   3.652664E-02   3.652664E-02   3.652664E-02   3.652664E-02   3.652664E-02   2.194968E-02   2.194968E-02   2.194968E-02   2.194968E-02   2.194968E-02   2.134013E-02   2.134013E-02   2.134013E-02   2.134013E-02   2.134013E-02   2.134013E-02   2.134013E-02   7.032872E-02   7.032872E-02   7.032872E-02   7.032872E-02   7.032872E-02   7.032872E-02   7.032872E-02   7.032872E-02   7.032872E-02   7.032872E-02   4.417618E-02   4.417618E-02   4.417618E-02   4.417618E-02   4.417618E-02   4.417618E-02   4.417618E-02   4.417618E-02   4.417618E-02   5.517729E-02   5.517729E-02   5.517729E-02   5.517729E-02   5.517729E-02   5.517729E-02   5.517729E-02   1.824301E-02   1.824301E-02   1.824301E-02   1.824301E-02   1.824301E-02   1.614269E-02   1.614269E-02   1.614269E-02   1.614269E-02   6.499217E-02   6.499217E-02   6.499217E-02   3.792723E-02   3.792723E-02   4.967662E-02   4.967662E-02   9.305540E-02   9.305540E-02   3.316823E-02   5.721021E-02   1.521668E-02   1.521668E-02   2.190202E-02   2.391223E-02   1.156485E-02   6.066112E-02   4.152425E-02   1.510408E-01   2.952935E-01   2.569633E-01   1.416122E-01   5.847348E-02   3.715033E-02   1.050916E-02   1.572594E-02   9.475679E-03   7.192156E-03   1.513105E-02   2.267329E-02   2.053949E-02   2.994634E-02   2.311633E-02   8.461173E-02   4.467070E-02   4.253611E-02   4.163647E-02   9.591437E-02   6.865042E-02   7.180244E-02   5.559897E-01   9.723986E-01   2.366255E-01   1.189945E-01   7.929656E-02   7.807318E-02   5.513929E-02   6.535180E-02   4.485809E-02   1.076508E-01   5.134667E-02   3.654647E-02
   9.059582E-03   2.925721E-02   6.042692E-02   4.406675E-02   1.768221E-02   1.359081E-02   1.262578E-02   1.668263E-02   2.125223E-02   5.497488E-02   3.928272E-02   2.760610E-02   2.586196E-02   2.460685E-02   1.229913E-02   1.656924E-02   1.792561E-02   1.275973E-02   2.511768E-02   3.457382E-02   1.638975E-02   4.098450E-02   3.860356E-02   5.627777E-02   2.086585E-02   6.120464E-02   6.586234E-02   4.615553E-02   2.421931E-02   2.692093E-02   8.111148E-02   7.600245E-02   3.102587E-02   1.524824E-02   1.093293E-02   9.318996E-03   2.875441E-02   3.587066E-02   1.668593E-02   4.274971E-02   1.007854E-01   1.236639E-01   1.375947E-01   4.287216E-02   6.423762E-02   1.840292E-02   9.482588E-03   3.106059E-02   1.461045E-02   1.598919E-02   3.003833E-02   1.041097E-02   8.099171E-03   6.136924E-03   2.271369E-02   1.475506E-02   5.926174E-03   5.536848E-03   1.300441E-02   2.776198E-02   3.487983E-02   2.240313E-02   1.702177E-02   5.397235E-03   1.611679E-02   6.090231E-02   4.187227E-02   7.475621E-02   6.637932E-02   2.150470E-02   2.478417E-02   1.232572E-02   1.868709E-02   5.676325E-02   1.169462E-01   2.368680E-01   1.395985E-01   1.965125E-01   1.183723E-01   3.920090E-02   3.058500E-02   1.188349E-02   9.972645E-03   1.010967E-02   1.002463E-02   1.506406E-02   5.486514E-03   6.301623E-03   1.003040E-02   2.331913E-02   2.331913E-02   3.116840E-02   2.946236E-02   2.946236E-02   2.122942E-02   3.123798E-02   3.123798E-02   1.160266E-02   1.160266E-02   1.160266E-02   1.077077E-02   1.077077E-02   1.077077E-02   2.852263E-02   2.852263E-02   2.852263E-02   2.852263E-02   2.852263E-02   3.808104E-02   3.808104E-02   3.808104E-02   3.808104E-02   3.808104E-02   2.314491E-02   2.314491E-02   2.314491E-02   2.314491E-02   2.314491E-02   2.314491E-02   2.314491E-02   5.313539E-02   5.313539E-02   5.313539E-02   5.313539E-02   5.313539E-02   5.313539E-02   5.313539E-02   5.313539E-02   5.313539E-02   5.313539E-02   4.491335E-02   4.491335E-02   4.491335E-02   4.491335E-02   4.491335E-02   4.491335E-02   4.491335E-02   4.491335E-02   4.491335E-02   8.911895E-02   8.911895E-02   8.911895E-02   8.911895E-02   8.911895E-02   8.911895E-02   8.911895E-02   1.903781E-02   1.903781E-02   1.903781E-02   1.903781E-02   1.903781E-02   1.556060E-02   1.556060E-02   1.556060E-02   1.556060E-02   7.809598E-02   7.809598E-02   7.809598E-02   1.710389E-02   1.710389E-02   1.348301E-02   1.348301E-02   3.234427E-02   3.234427E-02   4.370737E-02   4.972993E-02   2.984770E-02   2.984770E-02   2.230007E-02   4.020023E-02   1.643742E-02   9.806983E-02   5.755857E-02   3.166775E-01   4.641571E-01   1.502819E-01   1.361410E-01   3.403315E-02   2.107431E-02   1.287972E-02   4.412308E-03   7.763806E-03   4.131343E-03   1.474255E-02   2.121028E-02   1.636301E-02   1.278839E-02   3.459123E-02   6.248132E-02   7.334134E-02   3.065533E-02   2.947830E-02   1.067664E-01   4.500302E-02   2.159260E-01   3.626817E-01   6.168565E-01   7.135484E-01   1.954770E-01   8.724649E-02   1.153196E-01   3.024365E-02   3.824976E-02   1.571787E-02   4.500659E-02   3.287327E-02   5.578814E-02
   2.323856E-02   3.123637E-02   8.523836E-02   1.128047E-01   1.684434E-02   1.701005E-02   1.636577E-02   2.215769E-02   2.934305E-02   3.253271E-02   3.617427E-02   2.246821E-02   1.583080E-02   7.776663E-03   6.154473E-03   4.046252E-03   7.768431E-03   7.776462E-03   1.355457E-02   2.661670E-02   1.220116E-02   2.225445E-02   2.102729E-02   1.062651E-01   3.032062E-02   2.984412E-02   6.527937E-02   6.128552E-02   2.446334E-02   3.299762E-02   8.371284E-02   6.280840E-02   4.493012E-02   3.707612E-02   1.191488E-02   1.437996E-02   9.820578E-03   2.346620E-02   1.100489E-02   4.996678E-02   1.033212E-01   9.582098E-02   1.138247E-01   3.343586E-02   2.922782E-02   1.424017E-02   8.248500E-03   3.325851E-02   2.310851E-02   1.392168E-02   3.359175E-02   9.837069E-03   4.703063E-03   8.397412E-03   1.383796E-02   2.641283E-02   9.792966E-03   6.336958E-03   1.583792E-02   2.475202E-02   1.505089E-02   1.727597E-02   1.906456E-02   1.420468E-02   4.387482E-02   4.289896E-02   2.686876E-02   2.963363E-02   7.431901E-02   3.861257E-02   3.026160E-02   2.030228E-02   1.185577E-02   5.242708E-02   1.255480E-01   1.979476E-01   1.454595E-01   1.356133E-01   9.845100E-02   8.599227E-02   2.123462E-02   1.992116E-02   1.811847E-02   1.618941E-02   1.424347E-02   8.609041E-03   9.023760E-03   5.872400E-03   2.168735E-02   4.291740E-02   4.291740E-02   4.729700E-02   1.946739E-02   1.946739E-02   3.605999E-02   1.917302E-02   1.917302E-02   9.564501E-03   9.564501E-03   9.564501E-03   1.111181E-02   1.111181E-02   1.111181E-02   4.134713E-02   4.134713E-02   4.134713E-02   4.134713E-02   4.134713E-02   2.422323E-02   2.422323E-02   2.422323E-02   2.422323E-02   2.422323E-02   3.564675E-02   3.564675E-02   3.564675E-02   3.564675E-02   3.564675E-02   3.564675E-02   3.564675E-02   9.024086E-02   9.024086E-02   9.024086E-02   9.024086E-02   9.024086E-02   9.024086E-02   9.024086E-02   9.024086E-02   9.024086E-02   9.024086E-02   4.273150E-02   4.273150E-02   4.273150E-02   4.273150E-02   4.273150E-02   4.273150E-02   4.273150E-02   4.273150E-02   4.273150E-02   6.344224E-02   6.344224E-02   6.344224E-02   6.344224E-02   6.344224E-02   6.344224E-02   6.344224E-02   4.636465E-02   4.636465E-02   4.636465E-02   4.636465E-02   4.636465E-02   1.514867E-02   1.514867E-02   1.514867E-02   1.514867E-02   7.486725E-02   7.486725E-02   7.486725E-02   9.784248E-03   9.784248E-03   1.113779E-02   1.113779E-02   5.645530E-02   5.645530E-02   2.279100E-02   3.927178E-02   2.525301E-02   2.525301E-02   3.247944E-02   5.211468E-02   5.234474E-02   7.887138E-02   9.371904E-02   6.088676E-01   7.216683E-01   1.286173E-01   4.048477E-02   5.022928E-02   2.460232E-02   6.467298E-03   6.985649E-03   6.063967E-03   5.387465E-03   1.729065E-02   1.909310E-02   2.396166E-02   2.163859E-02   4.899829E-02   6.350771E-02   1.884783E-02   3.214491E-02   1.217963E-01   1.356215E-01   4.165347E-02   2.487892E-01   9.021778E-02   1.921539E-01   3.618605E-01   2.285247E-01   9.054303E-02   8.003233E-02   5.568852E-02   4.495503E-02   2.155713E-02   2.948930E-02   1.883251E-02   4.554822E-02
   3.003855E-02   3.423059E-02   1.326694E-01   9.368040E-02   2.742469E-02   2.051533E-02   2.139404E-02   3.293839E-02   4.067046E-02   4.781066E-02   7.443587E-02   3.699330E-02   1.526424E-02   4.858040E-03   5.920084E-03   4.779261E-03   1.019799E-02   6.301250E-03   7.626761E-03   1.285572E-02   2.666757E-02   3.516265E-02   2.836052E-02   5.036081E-02   5.152954E-02   4.288743E-02   4.211691E-02   5.788816E-02   4.574235E-02   2.352672E-02   2.921485E-02   4.957744E-02   6.336447E-02   4.935467E-02   1.764620E-02   1.797478E-02   3.818679E-03   9.615352E-03   7.330528E-03   4.667330E-02   1.308672E-01   1.077658E-01   5.459297E-02   4.265697E-02   1.743647E-02   8.706027E-03   9.196805E-03   1.682172E-02   2.005755E-02   1.654434E-02   1.283642E-02   3.115402E-03   5.228267E-03   3.601085E-02   2.778774E-02   1.685453E-02   1.230917E-02   2.195919E-02   1.841163E-02   2.210862E-02   1.604047E-02   4.391427E-02   4.502785E-02   2.777013E-02   4.470612E-02   4.653018E-02   1.666884E-02   2.202007E-02   2.701296E-02   3.451843E-02   1.969568E-02   1.460837E-02   3.632928E-02   4.703581E-02   9.772171E-02   5.510085E-02   3.723033E-02   5.662529E-02   5.804425E-02   4.646195E-02   1.740447E-02   1.691918E-02   1.408958E-02   1.561445E-02   2.261813E-02   8.365013E-03   1.954911E-02   1.934014E-02   3.393033E-02   4.499644E-02   4.499644E-02   3.441362E-02   2.279608E-02   2.279608E-02   3.347592E-02   1.517720E-02   1.517720E-02   9.403573E-03   9.403573E-03   9.403573E-03   1.733262E-02   1.733262E-02   1.733262E-02   4.371435E-02   4.371435E-02   4.371435E-02   4.371435E-02   4.371435E-02   5.928722E-02   5.928722E-02   5.928722E-02   5.928722E-02   5.928722E-02   4.022252E-02   4.022252E-02   4.022252E-02   4.022252E-02   4.022252E-02   4.022252E-02   4.022252E-02   1.042612E-01   1.042612E-01   1.042612E-01   1.042612E-01   1.042612E-01   1.042612E-01   1.042612E-01   1.042612E-01   1.042612E-01   1.042612E-01   1.046542E-01   1.046542E-01   1.046542E-01   1.046542E-01   1.046542E-01   1.046542E-01   1.046542E-01   1.046542E-01   1.046542E-01   4.012244E-02   4.012244E-02   4.012244E-02   4.012244E-02   4.012244E-02   4.012244E-02   4.012244E-02   4.093205E-02   4.093205E-02   4.093205E-02   4.093205E-02   4.093205E-02   2.167145E-02   2.167145E-02   2.167145E-02   2.167145E-02   5.646840E-02   5.646840E-02   5.646840E-02   1.493236E-02   1.493236E-02   9.787538E-03   9.787538E-03   4.966915E-02   4.966915E-02   4.113667E-02   2.734669E-02   1.271754E-01   1.271754E-01   4.057485E-02   3.430132E-02   5.621036E-02   1.403707E-01   1.743286E-01   3.912994E-01   4.763013E-01   9.330682E-02   6.057966E-02   5.852456E-02   1.509465E-02   1.298644E-02   4.758272E-03   2.227828E-03   1.374219E-02   1.847913E-02   4.725879E-02   2.657462E-02   1.432092E-02   1.999006E-02   4.105651E-02   2.037891E-02   2.209013E-02   8.010627E-02   7.383893E-02   7.705235E-02   2.372547E-01   1.025023E-01   1.784352E-01   1.953191E-01   1.463843E-01   6.527195E-02   1.196988E-01   5.243638E-02   3.912464E-02   2.168651E-02   2.057024E-02   1.880191E-02   2.878173E-02
   3.894013E-02   5.869250E-02   2.008898E-01   9.603639E-02   2.353840E-02   2.176252E-02   3.635364E-02   3.479093E-02   4.390847E-02   8.168590E-02   5.262990E-02   3.891418E-02   1.652336E-02   3.274875E-03   5.104797E-03   8.173716E-03   1.434287E-02   6.409909E-03   4.038553E-03   1.242166E-02   1.319838E-02   1.521925E-02   4.311868E-02   2.840665E-02   1.257604E-01   5.540808E-02   2.607860E-02   4.601735E-02   2.950225E-02   2.590780E-02   3.042157E-02   7.388457E-02   5.414718E-02   9.329452E-02   2.893952E-02   1.880373E-02   5.898750E-03   8.139349E-03   2.468419E-02   8.936942E-02   1.387900E-01   8.019921E-02   4.777491E-02   2.913715E-02   1.532385E-02   5.595333E-03   1.214410E-02   1.860162E-02   2.650032E-02   3.420689E-02   1.014842E-02   5.751666E-03   7.893066E-03   2.280778E-02   3.432675E-02   2.115326E-02   1.811416E-02   1.978372E-02   2.514049E-02   1.879405E-02   1.767051E-02   3.274167E-02   2.970984E-02   1.994296E-02   6.143132E-02   4.195424E-02   2.680741E-02   3.251505E-02   2.716074E-02   4.148341E-02   2.110046E-02   3.235506E-02   3.093968E-02   3.232114E-02   7.139667E-02   2.893638E-02   2.384640E-02   1.994061E-02   4.130409E-02   3.499458E-02   3.795037E-02   1.321860E-02   1.577542E-02   1.978892E-02   2.625838E-02   8.173026E-03   3.558896E-02   1.855021E-02   4.500316E-02   4.908537E-02   4.908537E-02   2.403238E-02   3.360207E-02   3.360207E-02   4.986849E-02   1.727319E-02   1.727319E-02   1.463816E-02   1.463816E-02   1.463816E-02   1.408940E-02   1.408940E-02   1.408940E-02   2.363517E-02   2.363517E-02   2.363517E-02   2.363517E-02   2.363517E-02   7.343487E-02   7.343487E-02   7.343487E-02   7.343487E-02   7.343487E-02   1.899565E-01   1.899565E-01   1.899565E-01   1.899565E-01   1.899565E-01   1.899565E-01   1.899565E-01   6.110732E-02   6.110732E-02   6.110732E-02   6.110732E-02   6.110732E-02   6.110732E-02   6.110732E-02   6.110732E-02   6.110732E-02   6.110732E-02   6.889444E-02   6.889444E-02   6.889444E-02   6.889444E-02   6.889444E-02   6.889444E-02   6.889444E-02   6.889444E-02   6.889444E-02   5.596695E-02   5.596695E-02   5.596695E-02   5.596695E-02   5.596695E-02   5.596695E-02   5.596695E-02   4.445858E-02   4.445858E-02   4.445858E-02   4.445858E-02   4.445858E-02   2.924580E-02   2.924580E-02   2.924580E-02   2.924580E-02   3.647217E-02   3.647217E-02   3.647217E-02   2.526093E-02   2.526093E-02   1.530295E-02   1.530295E-02   3.872533E-02   3.872533E-02   3.719164E-02   3.937664E-02   1.149736E-01   1.149736E-01   4.248013E-02   1.580981E-02   1.158012E-01   1.020619E-01   1.336449E-01   2.450349E-01   2.076024E-01   1.213353E-01   8.899814E-02   5.341373E-02   3.320459E-02   2.672737E-02   7.534680E-03   4.827206E-03   3.160713E-02   1.936690E-02   7.292475E-02   3.550452E-02   1.723495E-02   2.077378E-02   2.986899E-02   5.856166E-02   3.741194E-02   7.701447E-02   5.668716E-02   1.208186E-01   1.027505E-01   5.791955E-02   7.133966E-02   6.067650E-02   2.369498E-01   5.181601E-02   5.641661E-02   3.945989E-02   1.893897E-02   3.544483E-02   2.010187E-02   1.618661E-02   2.037197E-02
   2.506888E-02   3.152180E-02   6.523992E-02   6.379967E-02   5.034510E-02   6.745039E-02   8.183250E-02   1.362333E-01   7.756710E-02   1.679225E-01   4.945587E-02   4.850965E-02   2.021942E-02   7.559095E-03   8.408921E-03   1.415991E-02   1.172163E-02   7.106841E-03   3.473497E-03   1.149641E-02   1.037388E-02   1.139647E-02   2.323893E-02   2.993036E-02   5.985435E-02   3.996250E-02   2.892193E-02   2.339107E-02   1.408748E-02   1.464185E-02   8.566203E-02   1.488697E-01   1.587271E-01   1.485718E-01   5.106241E-02   1.072554E-02   5.767503E-03   3.465778E-03   7.648006E-02   1.271913E-01   2.153507E-01   1.582035E-01   5.073840E-02   4.444581E-02   6.315995E-03   1.021153E-02   2.339726E-02   1.868717E-02   6.292571E-02   2.726189E-02   1.588640E-02   8.726601E-03   7.819790E-03   2.237005E-02   1.546638E-02   2.310851E-02   2.417496E-02   2.271808E-02   1.387491E-02   1.281447E-02   2.063974E-02   4.733190E-02   6.801149E-02   9.787351E-02   8.679125E-02   8.822834E-02   1.833190E-02   4.156461E-02   2.771467E-02   2.964312E-02   1.635891E-02   5.591781E-02   2.533264E-02   2.269613E-02   2.289088E-02   2.312179E-02   1.712682E-02   1.672920E-02   2.658723E-02   8.335861E-02   2.916008E-02   2.038444E-02   2.119924E-02   1.494535E-02   2.417297E-02   8.101303E-03   1.902248E-02   2.711941E-02   2.397416E-02   4.652074E-02   4.652074E-02   1.665099E-02   3.565217E-02   3.565217E-02   4.501136E-02   4.268716E-02   4.268716E-02   1.966897E-02   1.966897E-02   1.966897E-02   1.883410E-02   1.883410E-02   1.883410E-02   2.379058E-02   2.379058E-02   2.379058E-02   2.379058E-02   2.379058E-02   3.689513E-02   3.689513E-02   3.689513E-02   3.689513E-02   3.689513E-02   4.034810E-02   4.034810E-02   4.034810E-02   4.034810E-02   4.034810E-02   4.034810E-02   4.034810E-02   9.707581E-02   9.707581E-02   9.707581E-02   9.707581E-02   9.707581E-02   9.707581E-02   9.707581E-02   9.707581E-02   9.707581E-02   9.707581E-02   9.235231E-02   9.235231E-02   9.235231E-02   9.235231E-02   9.235231E-02   9.235231E-02   9.235231E-02   9.235231E-02   9.235231E-02   6.588601E-02   6.588601E-02   6.588601E-02   6.588601E-02   6.588601E-02   6.588601E-02   6.588601E-02   1.782723E-02   1.782723E-02   1.782723E-02   1.782723E-02   1.782723E-02   2.220116E-02   2.220116E-02   2.220116E-02   2.220116E-02   4.503379E-02   4.503379E-02   4.503379E-02   2.734844E-02   2.734844E-02   2.109653E-02   2.109653E-02   3.989669E-02   3.989669E-02   4.555573E-02   9.639909E-02   3.949828E-02   3.949828E-02   3.354578E-02   3.012027E-02   1.532054E-01   5.225103E-02   1.508279E-01   1.318847E-01   1.442341E-01   1.155943E-01   9.796787E-02   4.565345E-02   5.414269E-02   2.608045E-02   1.235361E-02   7.948639E-03   1.311584E-02   2.303291E-02   6.587414E-02   2.169452E-02   1.064491E-02   1.831307E-02   1.992136E-02   5.068914E-02   2.117542E-02   1.382488E-02   4.315441E-02   4.332324E-02   4.503309E-02   2.129380E-02   4.808417E-02   1.246841E-01   2.950822E-01   4.291814E-02   4.550688E-02   2.152118E-02   1.980767E-02   1.822393E-02   2.022839E-02   2.011869E-02   2.826263E-02
   2.255699E-02   3.722117E-02   9.247793E-02   6.509777E-02   6.844424E-02   9.142788E-02   6.292366E-02   1.317712E-01   8.673409E-02   9.144369E-02   6.840254E-02   3.138034E-02   2.705023E-02   1.764601E-02   1.639394E-02   2.051646E-02   1.971244E-02   5.888155E-03   2.940044E-03   1.556204E-02   6.901206E-03   1.363941E-02   2.748387E-02   3.241026E-02   5.180626E-02   6.524470E-02   2.037863E-02   2.293336E-02   1.922740E-02   9.716595E-03   5.491970E-02   9.790462E-02   2.256928E-01   1.226980E-01   7.563681E-02   2.342657E-02   1.053138E-02   8.454739E-03   6.942558E-02   9.397841E-02   1.486861E-01   1.519838E-01   5.358211E-02   4.507710E-02   1.261190E-02   1.573656E-02   3.681033E-02   4.027251E-02   6.127536E-02   2.740505E-02   1.826123E-02   1.615205E-02   4.110997E-03   1.828153E-02   8.586237E-03   1.898520E-02   4.267847E-02   1.591238E-02   5.100509E-03   1.440578E-02   3.055530E-02   5.127046E-02   4.748116E-02   1.241758E-01   1.952221E-01   7.557488E-02   1.912780E-02   3.782977E-02   3.798678E-02   2.572834E-02   2.186888E-02   3.274152E-02   1.761216E-02   3.459457E-02   1.282561E-02   1.432886E-02   9.465116E-03   9.490347E-03   3.004855E-02   8.480682E-02   3.171030E-02   3.130266E-02   1.224853E-02   1.338602E-02   1.159996E-02   1.743966E-02   1.875312E-02   2.690126E-02   3.864579E-02   5.300262E-02   5.300262E-02   6.107072E-02   4.856153E-02   4.856153E-02   5.292008E-02   2.364635E-02   2.364635E-02   1.464077E-02   1.464077E-02   1.464077E-02   2.030113E-02   2.030113E-02   2.030113E-02   2.452594E-02   2.452594E-02   2.452594E-02   2.452594E-02   2.452594E-02   6.073523E-02   6.073523E-02   6.073523E-02   6.073523E-02   6.073523E-02   8.267523E-02   8.267523E-02   8.267523E-02   8.267523E-02   8.267523E-02   8.267523E-02   8.267523E-02   1.032466E-01   1.032466E-01   1.032466E-01   1.032466E-01   1.032466E-01   1.032466E-01   1.032466E-01   1.032466E-01   1.032466E-01   1.032466E-01   7.043669E-02   7.043669E-02   7.043669E-02   7.043669E-02   7.043669E-02   7.043669E-02   7.043669E-02   7.043669E-02   7.043669E-02   3.938035E-02   3.938035E-02   3.938035E-02   3.938035E-02   3.938035E-02   3.938035E-02   3.938035E-02   3.168530E-02   3.168530E-02   3.168530E-02   3.168530E-02   3.168530E-02   3.445022E-02   3.445022E-02   3.445022E-02   3.445022E-02   6.132469E-02   6.132469E-02   6.132469E-02   2.297999E-02   2.297999E-02   2.226009E-02   2.226009E-02   4.670342E-02   4.670342E-02   5.649319E-02   6.938127E-02   1.472202E-02   1.472202E-02   5.437885E-02   9.146381E-02   7.196016E-02   5.071280E-02   1.283168E-01   7.892919E-02   1.334382E-01   1.842300E-01   7.558171E-02   5.665970E-02   7.251763E-02   6.309888E-02   1.631628E-02   2.798325E-02   2.376904E-02   2.504728E-02   2.009762E-02   1.555317E-02   2.114709E-02   3.928268E-02   4.081825E-02   3.513183E-02   1.049604E-02   1.333718E-02   1.873646E-02   3.411956E-02   3.919473E-02   2.627416E-02   4.839974E-02   1.366995E-01   3.013655E-01   4.300169E-02   3.503228E-02   1.815636E-02   1.280041E-02   8.712661E-03   3.260066E-02   1.001503E-02   3.425236E-02
   2.503063E-02   2.710673E-02   4.547562E-02   1.174351E-01   1.114435E-01   3.934988E-02   3.827777E-02   3.954514E-02   5.818863E-02   6.988544E-02   1.104025E-01   4.463900E-02   4.166403E-02   2.727807E-02   2.714539E-02   2.146821E-02   2.185522E-02   6.143362E-03   4.630651E-03   1.448683E-02   2.025260E-02   1.243266E-02   1.987703E-02   2.388554E-02   3.721603E-02   7.634782E-02   2.562783E-02   1.069748E-02   2.501408E-02   1.490151E-02   4.011508E-02   4.327114E-02   2.249282E-01   2.305569E-01   5.365372E-02   2.821577E-02   3.397851E-02   2.907715E-02   3.695995E-02   4.123148E-02   4.668494E-02   1.410298E-01   4.877235E-02   7.452451E-02   1.329754E-02   3.168461E-02   5.132844E-02   2.612415E-02   2.858746E-02   1.379802E-02   2.112827E-02   1.959839E-02   8.099981E-03   1.807858E-02   1.387161E-02   1.558284E-02   1.311959E-02   1.037230E-02   1.188065E-02   9.105273E-03   2.453711E-02   3.251992E-02   5.657440E-02   1.044192E-01   1.878557E-01   5.485818E-02   2.720995E-02   3.253491E-02   3.854758E-02   1.980788E-02   1.831845E-02   2.952575E-02   1.357802E-02   1.380842E-02   8.145119E-03   2.931279E-02   2.382971E-02   3.642850E-02   3.606310E-02   3.616956E-02   3.474810E-02   1.757624E-02   7.762536E-03   1.973428E-02   9.458931E-03   1.195509E-02   2.067489E-02   3.431723E-02   8.014083E-02   6.570385E-02   6.570385E-02   8.072519E-02   2.367578E-02   2.367578E-02   2.296165E-02   1.829454E-02   1.829454E-02   1.093600E-02   1.093600E-02   1.093600E-02   2.331272E-02   2.331272E-02   2.331272E-02   1.834489E-02   1.834489E-02   1.834489E-02   1.834489E-02   1.834489E-02   4.839378E-02   4.839378E-02   4.839378E-02   4.839378E-02   4.839378E-02   1.302978E-01   1.302978E-01   1.302978E-01   1.302978E-01   1.302978E-01   1.302978E-01   1.302978E-01   4.316934E-02   4.316934E-02   4.316934E-02   4.316934E-02   4.316934E-02   4.316934E-02   4.316934E-02   4.316934E-02   4.316934E-02   4.316934E-02   5.883817E-02   5.883817E-02   5.883817E-02   5.883817E-02   5.883817E-02   5.883817E-02   5.883817E-02   5.883817E-02   5.883817E-02   7.297952E-02   7.297952E-02   7.297952E-02   7.297952E-02   7.297952E-02   7.297952E-02   7.297952E-02   4.866196E-02   4.866196E-02   4.866196E-02   4.866196E-02   4.866196E-02   6.232629E-02   6.232629E-02   6.232629E-02   6.232629E-02   6.205489E-02   6.205489E-02   6.205489E-02   2.311295E-02   2.311295E-02   4.496539E-02   4.496539E-02   1.972557E-02   1.972557E-02   3.457225E-02   3.324860E-02   1.350374E-02   1.350374E-02   2.112417E-02   2.714385E-01   1.116316E-01   8.442757E-02   9.129628E-02   5.381444E-02   1.233392E-01   1.995004E-01   5.491857E-02   8.880211E-02   6.786752E-02   4.554796E-02   2.542689E-02   3.765181E-02   4.329342E-02   2.336622E-02   1.083949E-02   9.375384E-03   1.999045E-02   5.847135E-02   1.197207E-02   2.760661E-02   1.311457E-02   8.101293E-03   1.497416E-02   2.427647E-02   2.952993E-02   3.067498E-02   8.041006E-02   1.505639E-01   1.704493E-01   4.809327E-02   6.592806E-02   2.580740E-02   1.409805E-02   4.855838E-03   1.571243E-02   1.666263E-02   3.508933E-02
   5.871168E-02   3.987125E-02   3.271756E-02   5.821588E-02   8.663312E-02   3.461490E-02   6.166384E-02   5.940294E-02   5.573012E-02   8.466944E-02   2.054408E-01   4.959543E-02   4.230641E-02   3.106974E-02   4.416703E-02   3.296820E-02   1.529979E-02   1.307430E-02   4.370054E-03   1.578750E-02   1.803789E-02   1.744133E-02   1.940191E-02   1.353876E-02   1.234714E-02   2.976808E-02   1.585110E-02   1.557701E-02   2.541842E-02   9.957273E-03   3.631829E-02   5.999766E-02   2.661954E-01   1.817026E-01   9.462058E-02   2.903339E-02   5.710165E-02   4.360883E-02   4.941590E-02   3.673851E-02   4.683401E-02   1.804753E-01   1.148099E-01   1.827673E-01   1.762165E-02   2.476815E-02   3.785342E-02   1.447896E-02   2.157790E-02   2.366038E-02   5.112648E-02   2.623858E-02   2.359106E-02   2.039043E-02   2.151451E-02   1.171013E-02   1.401598E-02   1.586287E-02   2.273372E-02   1.177865E-02   2.532157E-02   4.066008E-02   7.789904E-02   9.086373E-02   1.604833E-01   5.520243E-02   3.608410E-02   3.910391E-02   1.896139E-02   3.393419E-02   2.053463E-02   2.969832E-02   1.189626E-02   1.273311E-02   2.309267E-02   3.056828E-02   1.632604E-02   3.905669E-02   7.993740E-02   4.128090E-02   3.413189E-02   1.931795E-02   1.531462E-02   1.733687E-02   1.753609E-02   2.026210E-02   2.091261E-02   3.729316E-02   6.673872E-02   6.154691E-02   6.154691E-02   5.953440E-02   1.061565E-02   1.061565E-02   9.567508E-03   2.311603E-02   2.311603E-02   1.124438E-02   1.124438E-02   1.124438E-02   4.598275E-02   4.598275E-02   4.598275E-02   2.485047E-02   2.485047E-02   2.485047E-02   2.485047E-02   2.485047E-02   8.379287E-02   8.379287E-02   8.379287E-02   8.379287E-02   8.379287E-02   1.252587E-01   1.252587E-01   1.252587E-01   1.252587E-01   1.252587E-01   1.252587E-01   1.252587E-01   3.929504E-02   3.929504E-02   3.929504E-02   3.929504E-02   3.929504E-02   3.929504E-02   3.929504E-02   3.929504E-02   3.929504E-02   3.929504E-02   6.223373E-02   6.223373E-02   6.223373E-02   6.223373E-02   6.223373E-02   6.223373E-02   6.223373E-02   6.223373E-02   6.223373E-02   3.896403E-02   3.896403E-02   3.896403E-02   3.896403E-02   3.896403E-02   3.896403E-02   3.896403E-02   8.676434E-02   8.676434E-02   8.676434E-02   8.676434E-02   8.676434E-02   8.974548E-02   8.974548E-02   8.974548E-02   8.974548E-02   4.972060E-02   4.972060E-02   4.972060E-02   2.326955E-02   2.326955E-02   3.806206E-02   3.806206E-02   2.262952E-02   2.262952E-02   1.699959E-02   3.908888E-02   1.697002E-02   1.697002E-02   2.838431E-02   1.252335E-01   9.168515E-02   4.257587E-02   2.594273E-02   3.381475E-02   1.036100E-01   1.460148E-01   6.711553E-02   2.174127E-01   1.443063E-01   2.430444E-02   2.066058E-02   3.524486E-02   4.709634E-02   3.557141E-02   1.162346E-02   1.222759E-02   7.324806E-03   3.474801E-02   1.163305E-02   5.494955E-02   1.861396E-02   1.177095E-02   1.835280E-02   1.940433E-02   4.070943E-02   6.961937E-02   7.181803E-02   1.801008E-01   1.150471E-01   5.655378E-02   1.106177E-01   2.834990E-02   2.166219E-02   2.234694E-02   1.310051E-02   1.306282E-02   3.779932E-02