# LPF package for  MODFLOW-2005, generated by Flopy.
        53    -1E+30         0  
         1
         0
   0.000000E+00
         0
         0
INTERNAL               1 (207E15.6) -1 #hk layer 1                    
   1.416567E+02   6.083043E+01   1.344510E+02   1.795058E+02   8.618129E+01   1.447962E+02   7.047983E+01   2.349567E+01   4.833272E+01   3.571209E+01   2.075986E+02   3.307707E+02   9.979466E+01   1.315354E+02   1.218354E+02   1.077005E+02   1.430582E+02   1.829763E+02   4.524109E+02   2.273276E+02   4.347403E+01   1.060108E+02   3.361646E+01   1.578327E+01   1.102174E+01   3.990093E+01   4.771099E+01   4.776915E+01   5.906700E+01   3.518836E+01   3.712519E+01   5.329097E+01   2.944072E+01   5.688626E+01   2.587890E+02   2.176068E+02   5.712962E+02   2.511299E+02   7.565533E+01   9.788818E+01   1.455251E+02   2.218396E+02   9.477360E+01   7.388190E+01   8.128959E+01   9.806172E+01   1.564635E+02   2.713963E+02   1.673272E+03   1.040735E+03   4.971158E+02   4.270060E+02   3.527250E+02   2.445498E+02   1.272169E+02   6.315332E+01   1.693609E+02   2.438672E+02   2.346004E+02   1.961655E+02   1.754506E+02   5.230954E+01   6.946402E+01   9.545618E+01   8.032263E+01   1.617144E+02   1.470116E+02   2.406501E+02   2.875763E+02   3.847934E+02   9.019698E+01   5.638530E+01   3.312112E+01   1.509768E+01   2.566921E+01   2.377622E+01   3.309069E+01   4.722409E+01   1.980449E+01   3.244519E+01   3.129202E+01   6.670045E+01   1.987766E+01   3.510201E+01   3.120171E+01   3.901500E+01   6.881622E+01   6.948590E+01   1.310108E+02   6.006081E+01   6.006081E+01   9.654968E+01   1.556057E+02   1.556057E+02   1.111763E+02   6.745958E+01   6.745958E+01   2.541016E+02   2.541016E+02   2.541016E+02   2.379322E+02   2.379322E+02   2.379322E+02   4.375609E+02   4.375609E+02   4.375609E+02   4.375609E+02   4.375609E+02   1.534644E+02   1.534644E+02   1.534644E+02   1.534644E+02   1.534644E+02   2.871392E+02   2.871392E+02   2.871392E+02   2.871392E+02   2.871392E+02   2.871392E+02   2.871392E+02   1.832918E+02   1.832918E+02   1.832918E+02   1.832918E+02   1.832918E+02   1.832918E+02   1.832918E+02   1.832918E+02   1.832918E+02   1.832918E+02   1.686637E+02   1.686637E+02   1.686637E+02   1.686637E+02   1.686637E+02   1.686637E+02   1.686637E+02   1.686637E+02   1.686637E+02   2.295780E+02   2.295780E+02   2.295780E+02   2.295780E+02   2.295780E+02   2.295780E+02   2.295780E+02   8.277238E+01   8.277238E+01   8.277238E+01   8.277238E+01   8.277238E+01   5.206367E+01   5.206367E+01   5.206367E+01   5.206367E+01   3.715872E+01   3.715872E+01   3.715872E+01   1.573633E+01   1.573633E+01   2.855377E+01   2.855377E+01   6.716189E+01   6.716189E+01   1.155745E+02   3.074137E+01   4.299401E+01   4.299401E+01   1.686683E+01   4.469439E+01   2.160510E+01   2.689672E+01   2.741572E+01   1.177150E+02   2.995017E+01   3.246303E+01   9.931046E+01   1.183380E+02   4.378178E+01   5.134941E+01   5.093571E+01   2.818240E+01   8.493326E+01   8.708969E+01   7.328151E+01   1.914806E+02   2.324651E+02   1.142721E+02   7.330988E+01   3.131876E+01   1.439548E+02   1.866756E+02   2.011843E+02   1.307693E+02   1.066486E+02   1.178929E+02   2.849258E+02   1.962711E+02   6.161889E+01   2.279688E+02   5.237319E+02   2.128543E+02   1.239309E+02   3.721574E+01   4.771579E+01   1.079724E+02   7.429932E+01
   9.037857E+01   7.540150E+01   7.015826E+01   1.311929E+02   9.512475E+01   9.691319E+01   4.599101E+01   2.002038E+01   2.273580E+01   2.627477E+01   1.395993E+02   2.926737E+02   1.856192E+02   3.257014E+02   9.581039E+01   2.120036E+02   6.024443E+01   1.782851E+02   2.836684E+02   1.428545E+02   2.960778E+01   3.689289E+01   4.260815E+01   9.267664E+00   1.951827E+01   8.102330E+01   6.036197E+01   7.913783E+01   1.152352E+02   6.097139E+01   5.313548E+01   5.333091E+01   2.429354E+01   6.728103E+01   1.944963E+02   3.698434E+02   4.083781E+02   2.083228E+02   1.121221E+02   1.528299E+02   1.206848E+02   3.347876E+02   5.899551E+01   3.632228E+01   5.645601E+01   6.815260E+01   1.464984E+02   1.892085E+02   5.792399E+02   3.690120E+02   6.805317E+02   5.317022E+02   1.474116E+02   1.425041E+02   4.258473E+01   6.634869E+01   5.806335E+01   2.940677E+02   2.154644E+02   1.130567E+02   1.514003E+02   1.578246E+02   1.055654E+02   2.617143E+02   1.044543E+02   1.690477E+02   7.645323E+01   2.557901E+02   2.707943E+02   1.648984E+02   6.102336E+01   4.361652E+01   1.844943E+01   4.054329E+01   2.273286E+01   2.758459E+01   1.604895E+01   3.118688E+01   3.095216E+01   1.807604E+01   5.345734E+01   5.109435E+01   5.204294E+01   2.337774E+01   6.075113E+01   5.790554E+01   4.131995E+01   9.639571E+01   3.753093E+01   3.271161E+01   3.271161E+01   5.608529E+01   7.841315E+01   7.841315E+01   9.061663E+01   1.288897E+02   1.288897E+02   3.166215E+02   3.166215E+02   3.166215E+02   4.238113E+02   4.238113E+02   4.238113E+02   6.420435E+02   6.420435E+02   6.420435E+02   6.420435E+02   6.420435E+02   1.218776E+02   1.218776E+02   1.218776E+02   1.218776E+02   1.218776E+02   2.248275E+02   2.248275E+02   2.248275E+02   2.248275E+02   2.248275E+02   2.248275E+02   2.248275E+02   1.612540E+02   1.612540E+02   1.612540E+02   1.612540E+02   1.612540E+02   1.612540E+02   1.612540E+02   1.612540E+02   1.612540E+02   1.612540E+02   1.547377E+02   1.547377E+02   1.547377E+02   1.547377E+02   1.547377E+02   1.547377E+02   1.547377E+02   1.547377E+02   1.547377E+02   4.307994E+02   4.307994E+02   4.307994E+02   4.307994E+02   4.307994E+02   4.307994E+02   4.307994E+02   1.222419E+02   1.222419E+02   1.222419E+02   1.222419E+02   1.222419E+02   2.285163E+01   2.285163E+01   2.285163E+01   2.285163E+01   3.286559E+01   3.286559E+01   3.286559E+01   1.941184E+01   1.941184E+01   3.452595E+01   3.452595E+01   7.008826E+01   7.008826E+01   4.001859E+01   1.535756E+01   8.917539E+00   8.917539E+00   1.539632E+01   4.465271E+01   3.995425E+01   2.388133E+01   7.020550E+01   1.576087E+02   3.921666E+01   3.583327E+01   5.946109E+01   1.179919E+02   7.609162E+01   7.958443E+01   1.001857E+02   8.069634E+01   1.729156E+02   6.209393E+01   5.143863E+01   1.062945E+02   1.129592E+02   8.537425E+01   4.520236E+01   2.434776E+01   9.788445E+01   1.544564E+02   2.259741E+02   9.871736E+01   1.144768E+02   2.423068E+02   2.656345E+02   7.958522E+01   9.812623E+01   3.704487E+02   4.965528E+02   2.132645E+02   1.249212E+02   3.511047E+01   4.831649E+01   4.290663E+01   3.097038E+01
   5.025222E+01   8.554732E+01   8.564634E+01   8.702260E+01   9.200058E+01   8.531087E+01   5.513223E+01   2.625031E+01   2.205101E+01   5.943090E+01   1.326335E+02   3.240570E+02   1.775975E+02   2.066623E+02   1.749791E+02   1.361310E+02   5.883308E+01   1.089956E+02   2.512835E+02   6.295317E+01   1.532384E+01   2.954477E+01   4.039523E+01   9.159377E+00   1.778005E+01   4.307510E+01   1.057661E+02   4.450072E+01   2.585876E+02   1.428422E+02   7.476807E+01   3.996431E+01   2.484267E+01   9.966081E+01   2.130742E+02   5.078434E+02   4.007424E+02   1.386689E+02   1.056008E+02   1.094036E+02   9.878050E+01   2.861072E+02   4.919939E+01   2.876660E+01   9.232919E+01   2.460062E+02   2.270300E+02   8.737997E+01   1.901624E+02   6.655565E+02   9.162048E+02   4.507731E+02   9.034787E+01   7.317490E+01   3.831610E+01   4.502460E+01   4.855269E+01   1.836368E+02   1.365752E+02   1.092158E+02   1.590050E+02   1.430210E+02   2.378054E+02   2.280519E+02   1.353150E+02   8.784247E+01   4.276407E+01   1.376422E+02   2.430496E+02   1.523388E+02   1.047436E+02   8.564787E+01   1.733955E+01   3.564795E+01   1.535747E+01   2.157140E+01   1.599606E+01   2.954861E+01   5.645445E+01   3.538258E+01   6.070717E+01   8.255711E+01   7.343034E+01   8.342789E+01   2.686179E+02   1.370512E+02   5.390545E+01   9.362803E+01   6.786008E+01   3.490017E+01   3.490017E+01   5.697266E+01   6.255341E+01   6.255341E+01   2.053169E+02   3.284366E+02   3.284366E+02   2.007518E+02   2.007518E+02   2.007518E+02   4.168248E+02   4.168248E+02   4.168248E+02   8.105239E+02   8.105239E+02   8.105239E+02   8.105239E+02   8.105239E+02   1.683185E+02   1.683185E+02   1.683185E+02   1.683185E+02   1.683185E+02   1.010205E+02   1.010205E+02   1.010205E+02   1.010205E+02   1.010205E+02   1.010205E+02   1.010205E+02   2.191266E+02   2.191266E+02   2.191266E+02   2.191266E+02   2.191266E+02   2.191266E+02   2.191266E+02   2.191266E+02   2.191266E+02   2.191266E+02   1.478024E+02   1.478024E+02   1.478024E+02   1.478024E+02   1.478024E+02   1.478024E+02   1.478024E+02   1.478024E+02   1.478024E+02   3.765446E+02   3.765446E+02   3.765446E+02   3.765446E+02   3.765446E+02   3.765446E+02   3.765446E+02   5.735384E+01   5.735384E+01   5.735384E+01   5.735384E+01   5.735384E+01   3.839618E+01   3.839618E+01   3.839618E+01   3.839618E+01   4.194666E+01   4.194666E+01   4.194666E+01   3.564605E+01   3.564605E+01   2.368228E+01   2.368228E+01   3.264397E+01   3.264397E+01   1.343110E+01   7.433864E+00   5.952534E+00   5.952534E+00   5.097701E+00   3.859856E+01   3.308157E+01   6.539648E+01   4.633112E+01   9.064937E+01   1.450701E+02   1.624611E+02   5.670295E+01   1.370956E+02   1.332803E+02   1.201824E+02   6.373659E+01   1.058866E+02   1.356988E+02   4.536504E+01   9.704472E+01   9.808458E+01   5.338114E+01   2.674836E+01   1.514623E+01   2.785550E+01   8.109800E+01   8.749960E+01   1.053066E+02   1.101841E+02   1.782852E+02   1.488667E+02   1.664245E+02   1.011493E+02   1.191593E+02   2.991884E+02   1.929918E+02   1.829693E+02   8.857832E+01   2.705919E+01   3.216911E+01   5.584057E+01   5.273246E+01
   9.048558E+01   1.493218E+02   7.593327E+01   6.606487E+01   2.090324E+02   8.268818E+01   1.848761E+01   1.085577E+01   1.996875E+01   9.309739E+01   1.453291E+02   3.886861E+02   3.814896E+02   2.288598E+02   1.657735E+02   1.203547E+02   8.421904E+01   7.045444E+01   1.687041E+02   3.709295E+01   1.654751E+01   2.307755E+01   2.897047E+01   1.316852E+01   2.691265E+01   1.043479E+02   1.782131E+02   1.305675E+02   3.995551E+02   3.222128E+02   6.127816E+01   5.156322E+01   3.941815E+01   4.153428E+01   1.129326E+02   4.322740E+02   2.995509E+02   1.621360E+02   1.062127E+02   1.589671E+02   1.757309E+02   2.264338E+02   7.141686E+01   4.678567E+01   1.077528E+02   1.642807E+02   2.494938E+02   9.393143E+01   1.293009E+02   4.674449E+02   1.165937E+03   2.881290E+02   1.303477E+02   5.599986E+01   4.660862E+01   3.355720E+01   3.713200E+01   1.668173E+02   1.959688E+02   5.670488E+01   2.296390E+02   1.509053E+02   4.505239E+02   1.564592E+02   1.766932E+02   1.063571E+02   8.585609E+01   1.009735E+02   1.111927E+02   1.666909E+02   7.073118E+01   8.407829E+01   2.060226E+01   2.644733E+01   2.688308E+01   1.323979E+01   2.968752E+01   5.848803E+01   1.051394E+02   4.331561E+01   4.397002E+01   1.373068E+02   7.258105E+01   6.002579E+01   1.268969E+02   1.241021E+02   9.048299E+01   1.136192E+02   9.726586E+01   6.809678E+01   6.809678E+01   1.208777E+02   1.053010E+02   1.053010E+02   1.262175E+02   4.805505E+02   4.805505E+02   1.986667E+02   1.986667E+02   1.986667E+02   1.837817E+02   1.837817E+02   1.837817E+02   2.466553E+02   2.466553E+02   2.466553E+02   2.466553E+02   2.466553E+02   2.013143E+02   2.013143E+02   2.013143E+02   2.013143E+02   2.013143E+02   1.588641E+02   1.588641E+02   1.588641E+02   1.588641E+02   1.588641E+02   1.588641E+02   1.588641E+02   2.513974E+02   2.513974E+02   2.513974E+02   2.513974E+02   2.513974E+02   2.513974E+02   2.513974E+02   2.513974E+02   2.513974E+02   2.513974E+02   1.863520E+02   1.863520E+02   1.863520E+02   1.863520E+02   1.863520E+02   1.863520E+02   1.863520E+02   1.863520E+02   1.863520E+02   2.336475E+02   2.336475E+02   2.336475E+02   2.336475E+02   2.336475E+02   2.336475E+02   2.336475E+02   5.146984E+01   5.146984E+01   5.146984E+01   5.146984E+01   5.146984E+01   6.429152E+01   6.429152E+01   6.429152E+01   6.429152E+01   3.754538E+01   3.754538E+01   3.754538E+01   3.700053E+01   3.700053E+01   2.053816E+01   2.053816E+01   1.506219E+01   1.506219E+01   1.462896E+01   3.598858E+00   3.719066E+00   3.719066E+00   6.170868E+00   4.164763E+01   4.388333E+01   6.256686E+01   3.116496E+01   5.110312E+01   3.640992E+02   1.862386E+02   1.619393E+02   8.226260E+01   4.756300E+01   1.240487E+02   1.074817E+02   1.339979E+02   8.672339E+01   6.791372E+01   7.536182E+01   3.884390E+01   2.929846E+01   9.232015E+00   5.653424E+00   3.216691E+01   6.054719E+01   5.688204E+01   6.428122E+01   7.082952E+01   2.547509E+02   2.177065E+02   8.784449E+01   4.305307E+01   6.298147E+01   2.669999E+02   1.519831E+02   1.604987E+02   7.642651E+01   2.770971E+01   2.197460E+01   3.598406E+01   6.779299E+01
   1.193446E+02   1.131797E+02   7.489957E+01   7.675183E+01   2.375369E+02   6.873814E+01   3.540101E+01   2.452610E+01   5.176387E+01   1.093500E+02   2.521293E+02   4.441309E+02   3.971837E+02   1.444074E+02   1.125052E+02   1.013661E+02   4.275625E+01   5.279504E+01   1.366385E+02   2.283286E+01   2.142008E+01   2.478026E+01   1.873538E+01   1.195293E+01   3.799332E+01   1.307319E+02   2.463549E+02   2.358003E+02   4.263468E+02   3.160536E+02   1.122815E+02   4.116206E+01   3.086337E+01   5.703400E+01   4.373887E+01   2.831407E+02   2.499926E+02   1.761995E+02   1.644984E+02   1.551933E+02   1.650720E+02   1.760340E+02   8.672697E+01   6.640873E+01   7.668295E+01   1.107028E+02   2.121179E+02   1.000972E+02   1.561565E+02   3.180987E+02   5.217095E+02   4.615999E+02   1.349572E+02   3.588369E+01   1.943471E+01   4.372685E+01   4.654519E+01   1.639454E+02   9.384732E+01   3.050666E+01   7.267151E+01   7.320287E+01   1.289798E+02   1.251727E+02   9.061408E+01   1.856303E+02   2.860688E+02   1.597836E+02   1.079332E+02   4.227600E+01   3.327834E+01   4.943338E+01   1.914132E+01   2.145615E+01   1.915517E+01   3.119459E+01   2.638785E+01   5.619831E+01   8.961201E+01   3.685967E+01   1.743273E+02   4.375522E+01   5.652225E+01   5.410908E+01   4.852884E+01   5.031561E+01   6.973932E+01   1.642337E+02   1.367586E+02   2.614033E+02   2.614033E+02   1.269890E+02   3.452155E+01   3.452155E+01   1.846515E+02   3.034464E+02   3.034464E+02   1.283293E+02   1.283293E+02   1.283293E+02   1.414553E+02   1.414553E+02   1.414553E+02   2.591271E+02   2.591271E+02   2.591271E+02   2.591271E+02   2.591271E+02   1.859641E+02   1.859641E+02   1.859641E+02   1.859641E+02   1.859641E+02   1.155068E+02   1.155068E+02   1.155068E+02   1.155068E+02   1.155068E+02   1.155068E+02   1.155068E+02   1.818557E+02   1.818557E+02   1.818557E+02   1.818557E+02   1.818557E+02   1.818557E+02   1.818557E+02   1.818557E+02   1.818557E+02   1.818557E+02   5.935074E+01   5.935074E+01   5.935074E+01   5.935074E+01   5.935074E+01   5.935074E+01   5.935074E+01   5.935074E+01   5.935074E+01   3.612274E+01   3.612274E+01   3.612274E+01   3.612274E+01   3.612274E+01   3.612274E+01   3.612274E+01   1.636293E+01   1.636293E+01   1.636293E+01   1.636293E+01   1.636293E+01   4.843841E+01   4.843841E+01   4.843841E+01   4.843841E+01   5.992353E+01   5.992353E+01   5.992353E+01   3.160763E+01   3.160763E+01   3.496788E+01   3.496788E+01   1.513615E+01   1.513615E+01   1.019845E+01   4.877809E+00   6.980421E+00   6.980421E+00   1.373512E+01   2.676113E+01   3.131602E+01   3.074101E+01   1.266903E+01   3.151828E+01   1.260697E+02   2.330178E+02   2.525052E+02   1.119962E+02   1.790971E+02   1.691705E+02   1.166193E+02   1.435721E+02   6.370684E+01   6.207313E+01   7.458620E+01   1.890614E+01   8.977854E+00   5.242189E+00   2.932840E+01   1.896296E+01   1.207020E+01   2.416420E+01   2.541142E+01   7.626976E+01   7.176478E+01   9.174066E+01   8.566345E+01   6.293278E+01   4.345506E+01   1.139587E+02   1.829534E+02   1.903504E+02   2.509907E+01   1.564716E+01   2.480003E+01   6.622131E+01   6.519095E+01
   6.327798E+01   3.131467E+01   5.796584E+01   6.106596E+01   9.621318E+01   9.644554E+01   4.679453E+01   4.432245E+01   6.573920E+01   1.683731E+02   3.839720E+02   2.964789E+02   2.954636E+02   8.088674E+01   6.534702E+01   1.285210E+02   5.634897E+01   5.497845E+01   7.156549E+01   2.160789E+01   1.454401E+01   2.340831E+01   1.106600E+01   1.787049E+01   3.838342E+01   1.359688E+02   2.411262E+02   2.616595E+02   6.154434E+02   4.830800E+02   4.775235E+01   7.951858E+01   4.276027E+01   2.355699E+02   5.249162E+01   1.193899E+02   1.655171E+02   8.033678E+01   1.000721E+02   1.463480E+02   1.505279E+02   7.214949E+01   3.656792E+01   6.348355E+01   1.340794E+02   1.021655E+02   6.190512E+01   5.530193E+01   5.811363E+01   1.818120E+02   5.624926E+02   4.380421E+02   1.406662E+02   3.734459E+01   1.823931E+01   5.024900E+01   7.598286E+01   4.778935E+01   4.790236E+01   2.444789E+01   3.624036E+01   9.005387E+01   1.622458E+02   1.041933E+02   9.412240E+01   2.813363E+02   2.446225E+02   1.643452E+02   1.004187E+02   4.277294E+01   2.347194E+01   6.940344E+01   1.009546E+01   2.116101E+01   5.415992E+01   3.990062E+01   3.932260E+01   8.410912E+01   1.938157E+02   6.202302E+01   1.154927E+02   6.431165E+01   7.168002E+01   4.924313E+01   6.374998E+01   7.901567E+01   8.452745E+01   1.303841E+02   3.336482E+02   1.494975E+02   1.494975E+02   1.129822E+02   6.229812E+01   6.229812E+01   2.114466E+02   1.997544E+02   1.997544E+02   1.195923E+02   1.195923E+02   1.195923E+02   1.356057E+02   1.356057E+02   1.356057E+02   1.776912E+02   1.776912E+02   1.776912E+02   1.776912E+02   1.776912E+02   4.447149E+02   4.447149E+02   4.447149E+02   4.447149E+02   4.447149E+02   1.945285E+02   1.945285E+02   1.945285E+02   1.945285E+02   1.945285E+02   1.945285E+02   1.945285E+02   7.894247E+01   7.894247E+01   7.894247E+01   7.894247E+01   7.894247E+01   7.894247E+01   7.894247E+01   7.894247E+01   7.894247E+01   7.894247E+01   3.210239E+01   3.210239E+01   3.210239E+01   3.210239E+01   3.210239E+01   3.210239E+01   3.210239E+01   3.210239E+01   3.210239E+01   1.092497E+01   1.092497E+01   1.092497E+01   1.092497E+01   1.092497E+01   1.092497E+01   1.092497E+01   1.651484E+01   1.651484E+01   1.651484E+01   1.651484E+01   1.651484E+01   4.164524E+01   4.164524E+01   4.164524E+01   4.164524E+01   4.418686E+01   4.418686E+01   4.418686E+01   3.416772E+01   3.416772E+01   7.482888E+00   7.482888E+00   1.776384E+01   1.776384E+01   6.226767E+00   9.400850E+00   2.640722E+01   2.640722E+01   1.105768E+01   2.227708E+01   4.077519E+01   5.106187E+01   2.157425E+01   3.419156E+01   8.000909E+01   1.253621E+02   1.808299E+02   1.025222E+02   2.192780E+02   1.263121E+02   4.585809E+01   9.638154E+01   9.101455E+01   4.863292E+01   2.755237E+01   1.527497E+01   1.047920E+01   1.765464E+01   1.544439E+01   2.061802E+01   2.862390E+01   1.741838E+01   3.161937E+01   5.045648E+01   3.729864E+01   1.943102E+02   5.557426E+01   7.729510E+01   1.334237E+02   1.673716E+02   1.318600E+02   1.158973E+02   2.568537E+01   1.610268E+01   3.829430E+01   3.640388E+01   5.561718E+01
   3.902839E+01   1.573335E+01   3.734161E+01   3.865486E+01   1.412580E+02   6.784383E+01   3.663493E+01   3.817695E+01   8.509208E+01   1.395373E+02   6.018137E+02   1.805846E+02   1.821889E+02   5.791513E+01   3.165836E+01   5.178541E+01   5.320072E+01   3.232926E+01   4.584563E+01   1.369715E+01   6.793929E+00   1.464126E+01   3.144767E+01   2.635818E+01   8.466656E+01   7.772037E+01   7.585487E+01   3.131339E+02   4.146681E+02   9.126980E+01   2.280960E+01   4.319980E+01   1.286019E+02   1.404589E+02   2.966555E+01   5.514231E+01   1.174701E+02   5.489367E+01   1.788467E+02   1.570953E+02   1.052033E+02   4.651905E+01   3.579836E+01   1.097812E+02   6.817667E+01   7.581776E+01   6.164617E+01   7.830767E+01   5.556915E+01   8.900856E+01   2.924388E+02   1.653900E+02   7.500838E+01   5.071057E+01   2.681884E+01   4.581728E+01   1.201179E+02   4.989817E+01   4.462758E+01   3.386439E+01   2.770523E+01   1.409440E+02   9.930459E+01   9.050932E+01   5.264048E+01   7.172809E+01   1.987765E+02   2.831080E+02   5.889935E+01   4.262827E+01   3.833881E+01   6.117724E+01   1.190651E+01   1.033947E+01   4.414168E+01   4.708686E+01   8.754954E+01   1.145523E+02   7.162626E+01   1.002742E+02   3.948352E+01   5.426451E+01   1.212701E+02   5.146926E+01   9.065032E+01   7.777063E+01   8.768467E+01   1.428455E+02   2.200258E+02   1.952049E+02   1.952049E+02   1.115831E+02   1.084116E+02   1.084116E+02   3.453428E+02   2.088084E+02   2.088084E+02   1.368953E+02   1.368953E+02   1.368953E+02   1.508987E+02   1.508987E+02   1.508987E+02   7.565802E+01   7.565802E+01   7.565802E+01   7.565802E+01   7.565802E+01   3.207097E+02   3.207097E+02   3.207097E+02   3.207097E+02   3.207097E+02   1.105046E+02   1.105046E+02   1.105046E+02   1.105046E+02   1.105046E+02   1.105046E+02   1.105046E+02   1.583405E+01   1.583405E+01   1.583405E+01   1.583405E+01   1.583405E+01   1.583405E+01   1.583405E+01   1.583405E+01   1.583405E+01   1.583405E+01   3.470656E+01   3.470656E+01   3.470656E+01   3.470656E+01   3.470656E+01   3.470656E+01   3.470656E+01   3.470656E+01   3.470656E+01   2.974982E+01   2.974982E+01   2.974982E+01   2.974982E+01   2.974982E+01   2.974982E+01   2.974982E+01   2.000213E+01   2.000213E+01   2.000213E+01   2.000213E+01   2.000213E+01   5.959522E+01   5.959522E+01   5.959522E+01   5.959522E+01   6.903776E+01   6.903776E+01   6.903776E+01   3.211066E+01   3.211066E+01   1.053917E+01   1.053917E+01   2.758070E+01   2.758070E+01   1.278489E+01   2.014081E+01   6.717198E+01   6.717198E+01   2.010517E+01   5.737613E+01   3.733969E+01   5.442295E+01   1.904518E+01   1.897233E+01   6.106634E+01   2.922162E+02   2.329809E+02   1.197379E+02   2.252433E+02   8.845609E+01   3.411137E+01   8.653711E+01   1.011824E+02   5.983644E+01   1.308165E+01   1.892544E+01   1.409357E+01   9.574191E+00   1.570438E+01   2.745088E+01   1.122283E+02   3.334389E+01   5.571293E+01   4.659703E+01   7.546052E+01   1.198621E+02   3.771143E+01   1.122254E+02   9.554467E+01   1.610371E+02   1.347807E+02   6.729829E+01   3.433792E+01   1.716729E+01   4.137017E+01   5.727681E+01   6.365527E+01
   3.671236E+01   2.600616E+01   4.533124E+01   4.831100E+01   4.158003E+01   3.411000E+01   3.730624E+01   6.155140E+01   8.948257E+01   9.962835E+01   2.684022E+02   9.854301E+01   7.093076E+01   1.302769E+02   2.409819E+01   7.684152E+01   1.118456E+02   3.402755E+01   2.512027E+01   9.308893E+00   1.377602E+01   1.630469E+01   2.735629E+01   3.395035E+01   2.510598E+01   7.429341E+01   9.611347E+01   4.571774E+02   4.489888E+02   6.526962E+01   3.431043E+01   4.149392E+01   6.554434E+01   5.188971E+01   4.110882E+01   3.220145E+01   1.262504E+02   1.217063E+02   1.602601E+02   1.009807E+02   7.999854E+01   4.028259E+01   3.889005E+01   4.766488E+01   5.303379E+01   6.626264E+01   7.958981E+01   6.202981E+01   8.022096E+01   6.549817E+01   1.968824E+02   5.235927E+02   1.250272E+02   4.666983E+01   2.036526E+01   3.683192E+01   1.038636E+02   5.795896E+01   7.339657E+01   3.301876E+01   1.756409E+01   9.728925E+01   3.956164E+01   1.008287E+02   7.330544E+01   8.756165E+01   3.982296E+02   3.124390E+02   6.158062E+01   4.938796E+01   3.775174E+01   3.168657E+01   1.869490E+01   2.906919E+01   6.207357E+01   5.998201E+01   1.465162E+02   9.962324E+01   5.684785E+01   1.098957E+02   2.742867E+01   5.346208E+01   9.128974E+01   3.690118E+01   8.457249E+01   6.306978E+01   1.019084E+02   2.670604E+02   2.615527E+02   1.710906E+02   1.710906E+02   9.552159E+01   1.222626E+02   1.222626E+02   2.483554E+02   2.815382E+02   2.815382E+02   7.065003E+01   7.065003E+01   7.065003E+01   1.121354E+02   1.121354E+02   1.121354E+02   8.021638E+01   8.021638E+01   8.021638E+01   8.021638E+01   8.021638E+01   2.011470E+02   2.011470E+02   2.011470E+02   2.011470E+02   2.011470E+02   6.389046E+01   6.389046E+01   6.389046E+01   6.389046E+01   6.389046E+01   6.389046E+01   6.389046E+01   1.159809E+01   1.159809E+01   1.159809E+01   1.159809E+01   1.159809E+01   1.159809E+01   1.159809E+01   1.159809E+01   1.159809E+01   1.159809E+01   2.257856E+01   2.257856E+01   2.257856E+01   2.257856E+01   2.257856E+01   2.257856E+01   2.257856E+01   2.257856E+01   2.257856E+01   1.507645E+01   1.507645E+01   1.507645E+01   1.507645E+01   1.507645E+01   1.507645E+01   1.507645E+01   1.694730E+01   1.694730E+01   1.694730E+01   1.694730E+01   1.694730E+01   3.239368E+01   3.239368E+01   3.239368E+01   3.239368E+01   5.492671E+01   5.492671E+01   5.492671E+01   1.548877E+01   1.548877E+01   1.752572E+01   1.752572E+01   2.238103E+01   2.238103E+01   1.282717E+01   4.046796E+01   3.124691E+01   3.124691E+01   5.570374E+01   9.423981E+01   4.705757E+01   8.122502E+01   9.430162E+00   1.156844E+01   4.147656E+01   1.127165E+02   2.000887E+02   7.550293E+01   1.711853E+02   1.473068E+02   5.339597E+01   5.810382E+01   9.548318E+01   4.244647E+01   1.290620E+01   1.924833E+01   2.034081E+01   3.157116E+01   2.587308E+01   2.827617E+01   4.095071E+01   4.109003E+01   8.624761E+01   6.056726E+01   4.738071E+01   1.171314E+02   2.414795E+01   1.004145E+02   1.187554E+02   1.510605E+02   8.936125E+01   3.827520E+01   5.852273E+01   4.049472E+01   4.774246E+01   3.951632E+01   5.229692E+01
   4.126646E+01   1.464796E+01   1.424563E+01   4.002779E+01   4.465147E+01   1.783901E+01   2.790796E+01   6.943140E+01   9.589372E+01   1.163622E+02   1.942535E+02   1.601797E+02   8.863722E+01   1.619984E+02   2.498379E+01   8.562759E+01   5.716181E+01   4.541595E+01   2.383855E+01   2.108685E+01   1.682637E+01   2.397090E+01   2.434299E+01   6.790098E+01   3.236725E+01   4.753284E+01   2.988478E+02   3.056195E+02   2.675272E+02   1.421970E+02   2.567437E+01   2.617708E+01   5.535505E+01   2.615046E+01   3.375003E+01   5.524371E+01   9.880219E+01   1.747478E+02   1.882295E+02   1.117296E+02   4.953632E+01   5.308390E+01   9.655502E+01   5.129781E+01   9.181312E+01   1.490594E+01   6.635828E+01   2.165217E+01   7.365562E+01   5.091150E+01   1.981325E+02   2.914707E+02   1.555686E+02   3.315424E+01   1.747233E+01   4.536526E+01   4.245546E+01   3.974481E+01   4.483127E+01   2.639092E+01   1.854929E+01   9.420403E+01   2.559431E+01   3.849017E+01   6.291604E+01   1.643703E+02   3.752096E+02   1.553080E+02   7.327933E+01   4.091066E+01   4.749622E+01   3.142857E+01   3.116555E+01   2.690193E+01   3.335553E+01   7.549444E+01   5.785966E+01   6.436906E+01   7.922365E+01   1.321833E+02   6.494557E+01   5.820015E+01   6.717198E+01   3.435952E+01   5.316141E+01   8.018678E+01   1.438899E+02   4.082171E+02   3.083168E+02   2.927788E+02   2.927788E+02   1.750285E+02   2.021167E+02   2.021167E+02   1.939484E+02   8.283178E+01   8.283178E+01   8.037637E+01   8.037637E+01   8.037637E+01   8.521915E+01   8.521915E+01   8.521915E+01   7.833089E+01   7.833089E+01   7.833089E+01   7.833089E+01   7.833089E+01   7.461729E+01   7.461729E+01   7.461729E+01   7.461729E+01   7.461729E+01   6.165177E+01   6.165177E+01   6.165177E+01   6.165177E+01   6.165177E+01   6.165177E+01   6.165177E+01   2.026303E+01   2.026303E+01   2.026303E+01   2.026303E+01   2.026303E+01   2.026303E+01   2.026303E+01   2.026303E+01   2.026303E+01   2.026303E+01   2.274496E+01   2.274496E+01   2.274496E+01   2.274496E+01   2.274496E+01   2.274496E+01   2.274496E+01   2.274496E+01   2.274496E+01   1.782574E+01   1.782574E+01   1.782574E+01   1.782574E+01   1.782574E+01   1.782574E+01   1.782574E+01   4.345953E+01   4.345953E+01   4.345953E+01   4.345953E+01   4.345953E+01   3.556028E+01   3.556028E+01   3.556028E+01   3.556028E+01   3.830348E+01   3.830348E+01   3.830348E+01   3.408982E+01   3.408982E+01   1.734679E+01   1.734679E+01   2.554668E+01   2.554668E+01   8.081636E+00   2.985922E+01   2.971148E+01   2.971148E+01   1.072555E+02   1.078008E+02   8.529445E+01   9.654126E+01   1.728227E+01   2.999972E+01   3.251099E+01   5.355765E+01   1.043147E+02   7.005383E+01   1.884308E+02   1.516527E+02   3.660776E+01   1.332188E+01   4.192185E+01   5.781128E+01   1.599405E+01   1.924101E+01   2.326137E+01   4.307647E+01   4.635256E+01   7.967159E+01   1.753974E+02   8.431689E+01   4.628185E+01   4.591816E+01   6.577654E+01   6.166114E+01   2.571672E+01   2.157260E+01   8.432586E+01   6.873830E+01   4.960149E+01   1.088701E+02   2.927351E+02   5.574505E+01   6.462278E+01   3.463194E+01   2.537382E+01