# LPF package for  MODFLOW-2005, generated by Flopy.
        53    -1E+30         0  
         1
         0
   0.000000E+00
         0
         0
INTERNAL               1 (207E15.6) -1 #hk layer 1                    
   1.069836E+02   6.125986E+01   4.054315E+01   1.345785E+02   9.659414E+01   7.383389E+01   8.585265E+01   7.610746E+01   4.107699E+01   3.970467E+01   5.120189E+01   2.926478E+01   4.556767E+01   7.777141E+01   7.176208E+01   1.051436E+02   8.541479E+01   4.986403E+01   1.210929E+01   2.391112E+01   1.985925E+01   8.276817E+01   1.387932E+02   1.397608E+02   4.718873E+01   2.574438E+01   6.492841E+01   2.467362E+01   2.839100E+01   3.350993E+01   1.139547E+02   8.358959E+01   3.455189E+01   2.862149E+01   4.425515E+01   7.530582E+01   1.604760E+02   1.345899E+02   1.012522E+02   8.083210E+01   8.370178E+01   9.647758E+01   5.746996E+01   5.883417E+01   6.083095E+01   1.047487E+02   9.277630E+01   1.559738E+02   8.277147E+01   9.427428E+01   2.465473E+02   5.204507E+01   1.965803E+02   1.903662E+02   2.553045E+02   8.958611E+01   7.097305E+01   4.402384E+01   2.423093E+01   5.281290E+01   1.804357E+02   3.035386E+02   2.181019E+02   1.026556E+02   5.099387E+01   2.149971E+01   1.593016E+01   1.760938E+01   8.183563E+01   4.266513E+01   2.686670E+01   2.018674E+01   2.917812E+01   8.242062E+01   8.513450E+01   1.067510E+02   1.777634E+02   2.853599E+02   5.494587E+02   2.518679E+02   1.456847E+02   8.865995E+01   1.560691E+02   2.107434E+02   1.465431E+02   7.106429E+01   5.818626E+01   1.421068E+02   1.057330E+02   1.677156E+02   1.677156E+02   1.691464E+02   2.016214E+02   2.016214E+02   3.902584E+01   4.644572E+01   4.644572E+01   3.965238E+01   3.965238E+01   3.965238E+01   1.622523E+01   1.622523E+01   1.622523E+01   7.183271E+01   7.183271E+01   7.183271E+01   7.183271E+01   7.183271E+01   2.415454E+02   2.415454E+02   2.415454E+02   2.415454E+02   2.415454E+02   1.483455E+02   1.483455E+02   1.483455E+02   1.483455E+02   1.483455E+02   1.483455E+02   1.483455E+02   7.921057E+01   7.921057E+01   7.921057E+01   7.921057E+01   7.921057E+01   7.921057E+01   7.921057E+01   7.921057E+01   7.921057E+01   7.921057E+01   2.780797E+02   2.780797E+02   2.780797E+02   2.780797E+02   2.780797E+02   2.780797E+02   2.780797E+02   2.780797E+02   2.780797E+02   6.197881E+01   6.197881E+01   6.197881E+01   6.197881E+01   6.197881E+01   6.197881E+01   6.197881E+01   7.343771E+01   7.343771E+01   7.343771E+01   7.343771E+01   7.343771E+01   1.645850E+02   1.645850E+02   1.645850E+02   1.645850E+02   2.865011E+02   2.865011E+02   2.865011E+02   1.147999E+02   1.147999E+02   1.676953E+02   1.676953E+02   2.761670E+02   2.761670E+02   2.772714E+02   1.285806E+02   1.332349E+02   1.332349E+02   1.654205E+02   2.053619E+02   7.556722E+01   3.076731E+01   7.077388E+01   3.089641E+02   2.594891E+02   4.906119E+02   1.358913E+02   9.360818E+01   2.963725E+02   8.739120E+01   1.500410E+02   3.709896E+02   7.178061E+01   1.607276E+02   2.650730E+02   9.956535E+01   1.094850E+02   5.356915E+01   1.306439E+02   1.588188E+02   1.857075E+02   6.425880E+01   6.375590E+01   1.282718E+02   3.600367E+01   1.641777E+01   4.518067E+01   3.661071E+01   1.168397E+02   4.517109E+02   5.577051E+01   8.769887E+01   3.584300E+01   2.042424E+01   2.734879E+01   1.606589E+01   4.121478E+01
   5.800872E+01   1.044198E+02   3.124804E+01   7.637925E+01   4.642447E+01   3.976900E+01   1.541077E+02   5.082500E+01   4.069276E+01   3.894529E+01   4.261341E+01   4.772440E+01   7.274604E+01   4.957721E+01   4.738939E+01   1.075524E+02   2.738794E+01   2.584635E+01   4.960209E+00   1.879390E+01   1.378885E+01   2.328379E+02   1.151448E+02   1.467039E+02   6.230583E+01   2.802493E+01   4.184427E+01   2.505614E+01   2.488439E+01   5.101270E+01   1.043927E+02   1.398157E+02   3.857655E+01   3.560378E+01   6.311049E+01   1.229960E+02   7.935210E+01   1.266626E+02   7.788641E+01   8.054796E+01   1.585186E+02   5.356927E+01   6.293912E+01   1.825083E+01   5.404362E+01   7.473716E+01   1.167387E+02   9.368060E+01   9.321963E+01   1.845053E+02   1.066937E+02   1.181718E+02   2.369433E+02   6.191127E+01   1.358380E+02   4.850792E+01   4.601871E+01   3.111804E+01   4.847984E+01   1.595643E+02   2.180211E+02   2.551393E+02   4.311734E+02   1.461281E+02   1.125255E+02   2.314413E+01   3.683582E+01   5.336655E+01   1.290334E+02   5.656343E+01   7.772395E+01   2.633709E+01   2.005037E+01   8.536091E+01   9.185417E+01   1.196625E+02   8.736544E+01   3.722003E+02   2.937659E+02   2.372354E+02   1.081738E+02   5.588173E+01   1.585881E+02   1.344005E+02   7.238651E+01   5.947840E+01   3.555867E+01   1.191651E+02   1.731525E+02   9.325984E+01   9.325984E+01   1.829813E+02   8.471658E+01   8.471658E+01   4.862237E+01   3.820879E+01   3.820879E+01   8.063710E+01   8.063710E+01   8.063710E+01   1.793541E+01   1.793541E+01   1.793541E+01   3.183943E+01   3.183943E+01   3.183943E+01   3.183943E+01   3.183943E+01   1.661605E+02   1.661605E+02   1.661605E+02   1.661605E+02   1.661605E+02   1.682388E+02   1.682388E+02   1.682388E+02   1.682388E+02   1.682388E+02   1.682388E+02   1.682388E+02   8.011135E+01   8.011135E+01   8.011135E+01   8.011135E+01   8.011135E+01   8.011135E+01   8.011135E+01   8.011135E+01   8.011135E+01   8.011135E+01   1.822420E+02   1.822420E+02   1.822420E+02   1.822420E+02   1.822420E+02   1.822420E+02   1.822420E+02   1.822420E+02   1.822420E+02   1.408961E+02   1.408961E+02   1.408961E+02   1.408961E+02   1.408961E+02   1.408961E+02   1.408961E+02   9.701423E+01   9.701423E+01   9.701423E+01   9.701423E+01   9.701423E+01   2.474756E+02   2.474756E+02   2.474756E+02   2.474756E+02   4.051185E+02   4.051185E+02   4.051185E+02   1.342942E+02   1.342942E+02   2.194004E+02   2.194004E+02   1.515389E+02   1.515389E+02   2.686464E+02   1.257396E+02   9.543153E+01   9.543153E+01   2.185312E+02   5.531288E+01   6.340269E+01   3.412302E+01   4.226242E+01   1.172357E+02   1.364636E+02   2.338577E+02   9.008722E+01   2.231191E+02   2.810431E+02   2.278602E+02   1.881226E+02   2.814528E+02   8.360528E+01   1.834674E+02   3.339460E+02   1.605771E+02   8.078589E+01   1.023847E+02   9.636835E+01   1.446331E+02   7.094907E+01   6.309132E+01   5.474155E+01   6.305382E+01   1.617760E+01   8.866273E+00   2.025237E+01   3.449716E+01   1.021553E+02   2.799529E+02   1.940137E+02   1.562429E+02   2.252158E+01   2.283468E+01   4.020179E+01   1.821557E+01   2.227152E+01
   6.953561E+01   9.791948E+01   5.630834E+01   4.838008E+01   3.646768E+01   4.157973E+01   2.421699E+01   5.496060E+01   2.029354E+01   3.590221E+01   4.094025E+01   7.670696E+01   7.284616E+01   4.066284E+01   4.310109E+01   3.453545E+01   2.793869E+01   1.234975E+01   4.555169E+00   1.875080E+01   2.056790E+01   1.639633E+02   9.394734E+01   8.061987E+01   3.523357E+01   2.572851E+01   3.628840E+01   4.172435E+01   3.740171E+01   3.327702E+01   1.383404E+02   1.420695E+02   7.761540E+01   5.028121E+01   1.256342E+02   6.554211E+01   4.101530E+01   8.791500E+01   6.247900E+01   1.647041E+02   7.868132E+01   2.439006E+01   3.384777E+01   5.124904E+01   4.971731E+01   5.017579E+01   6.582254E+01   4.224300E+01   5.656042E+01   4.320734E+01   5.978652E+01   1.324234E+02   2.846111E+02   1.312434E+02   1.162191E+02   8.573090E+01   5.787036E+01   2.178546E+01   5.736182E+01   8.563986E+01   1.600357E+02   2.414420E+02   1.982303E+02   8.241065E+01   2.071443E+02   2.105523E+01   1.259644E+02   4.863495E+01   1.165221E+02   5.497983E+01   9.238583E+01   4.232421E+01   7.269727E+01   8.791505E+01   9.804924E+01   1.095618E+02   1.337281E+02   3.072586E+02   2.552650E+02   1.070324E+02   1.937675E+02   5.542139E+01   1.408116E+02   1.349485E+02   7.096976E+01   1.202630E+02   4.753036E+01   1.633397E+02   2.415346E+02   1.748792E+02   1.748792E+02   2.037982E+02   8.500997E+01   8.500997E+01   8.758182E+01   5.767914E+01   5.767914E+01   4.963960E+01   4.963960E+01   4.963960E+01   3.496776E+01   3.496776E+01   3.496776E+01   5.116006E+01   5.116006E+01   5.116006E+01   5.116006E+01   5.116006E+01   7.605031E+01   7.605031E+01   7.605031E+01   7.605031E+01   7.605031E+01   6.458021E+01   6.458021E+01   6.458021E+01   6.458021E+01   6.458021E+01   6.458021E+01   6.458021E+01   6.315339E+01   6.315339E+01   6.315339E+01   6.315339E+01   6.315339E+01   6.315339E+01   6.315339E+01   6.315339E+01   6.315339E+01   6.315339E+01   6.073787E+01   6.073787E+01   6.073787E+01   6.073787E+01   6.073787E+01   6.073787E+01   6.073787E+01   6.073787E+01   6.073787E+01   4.204923E+01   4.204923E+01   4.204923E+01   4.204923E+01   4.204923E+01   4.204923E+01   4.204923E+01   6.203273E+01   6.203273E+01   6.203273E+01   6.203273E+01   6.203273E+01   1.603842E+02   1.603842E+02   1.603842E+02   1.603842E+02   2.555812E+02   2.555812E+02   2.555812E+02   2.075293E+02   2.075293E+02   2.809718E+02   2.809718E+02   1.373649E+02   1.373649E+02   2.475521E+02   1.635429E+02   3.449839E+01   3.449839E+01   8.114161E+01   5.282355E+01   5.697943E+01   6.404585E+01   7.820239E+01   9.802661E+01   9.620102E+01   1.440670E+02   6.590133E+01   2.056140E+02   1.319517E+02   1.751076E+02   1.070828E+02   2.620493E+02   9.885999E+01   1.689824E+02   4.794014E+02   1.592754E+02   8.878083E+01   4.825531E+01   2.684659E+01   1.258249E+02   5.318581E+01   6.016999E+01   4.395871E+01   3.532283E+01   1.016172E+01   1.180688E+01   2.530373E+01   4.568560E+01   1.784318E+02   2.021512E+02   3.636674E+02   2.105409E+02   4.630671E+01   1.843672E+01   1.626014E+01   1.998199E+01   3.013534E+01
   6.989870E+01   2.379791E+01   2.345072E+01   3.922134E+01   4.082585E+01   5.511999E+01   2.187303E+01   4.770637E+01   2.149362E+01   5.496414E+01   4.132900E+01   5.619353E+01   3.854496E+01   2.649540E+01   3.315188E+01   3.141149E+01   3.778072E+01   1.455866E+01   1.767356E+01   2.681963E+01   1.985602E+01   1.417276E+02   2.516283E+02   1.864568E+02   1.635110E+02   3.935288E+01   2.142872E+01   3.495131E+01   6.818203E+01   8.271231E+01   1.719756E+02   1.557851E+02   6.495609E+01   1.031800E+02   7.711149E+01   3.554063E+01   4.217942E+01   5.628654E+01   5.632725E+01   3.712973E+01   4.741720E+01   3.096639E+01   4.296277E+01   6.649728E+01   9.109384E+01   1.246773E+02   1.086161E+02   8.178107E+01   5.305847E+01   4.340382E+01   8.421623E+01   9.028170E+01   1.870109E+02   1.157216E+02   6.908702E+01   1.258910E+02   7.734191E+01   1.788251E+01   5.105791E+01   1.914528E+02   1.461843E+02   3.462788E+02   1.355426E+02   7.616360E+01   6.614845E+01   1.359373E+01   9.254842E+01   4.365303E+01   5.149910E+01   1.123048E+02   1.177258E+02   8.338954E+01   8.567187E+01   7.292538E+01   1.339165E+02   1.118403E+02   1.057449E+02   1.387639E+02   2.528788E+02   3.147077E+02   1.743450E+02   1.964026E+02   1.577767E+02   8.249506E+01   9.617439E+01   1.206408E+02   5.126108E+01   1.475609E+02   2.379455E+02   2.167879E+02   2.167879E+02   3.018688E+02   3.664078E+01   3.664078E+01   8.126894E+01   7.218796E+01   7.218796E+01   4.995533E+01   4.995533E+01   4.995533E+01   4.924797E+01   4.924797E+01   4.924797E+01   9.358386E+01   9.358386E+01   9.358386E+01   9.358386E+01   9.358386E+01   4.234993E+01   4.234993E+01   4.234993E+01   4.234993E+01   4.234993E+01   5.562369E+01   5.562369E+01   5.562369E+01   5.562369E+01   5.562369E+01   5.562369E+01   5.562369E+01   5.553353E+01   5.553353E+01   5.553353E+01   5.553353E+01   5.553353E+01   5.553353E+01   5.553353E+01   5.553353E+01   5.553353E+01   5.553353E+01   7.831021E+01   7.831021E+01   7.831021E+01   7.831021E+01   7.831021E+01   7.831021E+01   7.831021E+01   7.831021E+01   7.831021E+01   5.711191E+01   5.711191E+01   5.711191E+01   5.711191E+01   5.711191E+01   5.711191E+01   5.711191E+01   9.835239E+01   9.835239E+01   9.835239E+01   9.835239E+01   9.835239E+01   7.223815E+01   7.223815E+01   7.223815E+01   7.223815E+01   1.006063E+02   1.006063E+02   1.006063E+02   1.969870E+02   1.969870E+02   2.102029E+02   2.102029E+02   4.880477E+01   4.880477E+01   1.493091E+02   1.208270E+02   3.485368E+01   3.485368E+01   3.370528E+01   6.162119E+01   1.476678E+02   3.982118E+01   9.416854E+01   9.372710E+01   8.019810E+01   1.036548E+02   1.378583E+02   1.827888E+02   2.048110E+02   1.103735E+02   9.116492E+01   7.748618E+01   7.948503E+01   1.329120E+02   1.325802E+02   2.252281E+02   4.957664E+01   4.823426E+01   3.003422E+01   7.438036E+01   4.412110E+01   4.487473E+01   9.983473E+00   1.356222E+01   2.313022E+01   1.945847E+01   5.565830E+01   7.521040E+01   3.742672E+02   3.002003E+02   3.177819E+02   3.288399E+02   8.301588E+01   5.557409E+01   2.191251E+01   4.495551E+01   5.350436E+01
   7.950356E+01   5.191924E+01   2.169597E+01   3.109375E+01   5.364991E+01   3.949377E+01   3.370248E+01   2.061533E+01   1.548756E+01   7.983745E+01   4.344110E+01   2.928514E+01   1.459736E+01   2.450908E+01   3.646437E+01   1.586953E+01   5.217147E+01   3.167077E+01   4.634821E+01   2.544032E+01   3.786404E+01   1.053506E+02   2.840292E+02   1.398557E+02   1.115675E+02   2.623888E+01   1.958335E+01   3.072380E+01   8.174918E+01   9.339079E+01   7.393620E+01   7.605117E+01   7.046903E+01   9.589585E+01   7.453107E+01   2.929583E+01   3.754936E+01   5.236112E+01   9.329202E+01   1.931125E+01   1.739403E+01   2.121016E+01   7.258884E+01   1.573485E+02   9.600142E+01   5.872232E+01   2.706517E+02   3.548489E+01   6.401742E+01   5.070337E+01   5.759524E+01   9.518862E+01   7.114087E+01   1.493412E+02   6.430627E+01   3.608105E+01   5.735834E+01   3.756025E+01   1.106841E+02   3.211485E+02   2.041028E+02   3.973522E+02   1.599355E+02   5.981374E+01   4.332969E+01   1.664059E+01   3.172982E+01   2.137772E+01   3.264994E+01   5.748769E+01   7.289053E+01   1.295344E+02   1.122040E+02   1.291260E+02   1.699384E+02   2.096744E+02   1.490419E+02   7.694296E+01   8.003087E+01   1.528550E+02   3.187893E+02   1.840101E+02   1.212314E+02   6.109684E+01   5.889285E+01   5.682559E+01   1.620202E+01   1.053388E+02   1.262298E+02   1.590044E+02   1.590044E+02   2.307845E+02   6.170920E+01   6.170920E+01   6.957079E+01   6.413437E+01   6.413437E+01   6.718212E+01   6.718212E+01   6.718212E+01   5.769345E+01   5.769345E+01   5.769345E+01   6.550741E+01   6.550741E+01   6.550741E+01   6.550741E+01   6.550741E+01   4.144494E+01   4.144494E+01   4.144494E+01   4.144494E+01   4.144494E+01   1.715670E+01   1.715670E+01   1.715670E+01   1.715670E+01   1.715670E+01   1.715670E+01   1.715670E+01   3.656038E+01   3.656038E+01   3.656038E+01   3.656038E+01   3.656038E+01   3.656038E+01   3.656038E+01   3.656038E+01   3.656038E+01   3.656038E+01   4.765421E+01   4.765421E+01   4.765421E+01   4.765421E+01   4.765421E+01   4.765421E+01   4.765421E+01   4.765421E+01   4.765421E+01   6.015303E+01   6.015303E+01   6.015303E+01   6.015303E+01   6.015303E+01   6.015303E+01   6.015303E+01   5.942178E+01   5.942178E+01   5.942178E+01   5.942178E+01   5.942178E+01   5.552498E+01   5.552498E+01   5.552498E+01   5.552498E+01   5.166701E+01   5.166701E+01   5.166701E+01   1.093836E+02   1.093836E+02   1.453394E+02   1.453394E+02   9.392039E+01   9.392039E+01   2.693679E+02   1.032794E+02   4.089894E+01   4.089894E+01   2.925224E+01   5.483517E+01   1.644574E+02   3.131009E+01   1.446850E+02   1.551687E+02   1.341371E+02   2.199916E+02   3.843444E+02   1.461382E+02   1.345741E+02   1.272024E+02   1.644808E+02   4.834741E+01   4.396004E+01   1.551711E+02   8.291424E+01   1.322140E+02   7.308025E+01   6.585419E+01   3.783750E+01   8.924478E+01   2.193885E+02   5.116852E+01   1.618642E+01   1.547845E+01   4.464877E+01   3.922886E+01   6.182413E+01   1.925518E+02   3.584829E+02   3.426525E+02   3.424921E+02   3.793358E+02   4.699720E+01   9.183152E+01   4.408247E+01   6.142207E+01   4.704505E+01
   1.967153E+02   6.987868E+01   4.251556E+01   2.881404E+01   2.574025E+01   3.170568E+01   2.329197E+01   1.285357E+01   1.812462E+01   4.583433E+01   2.461193E+01   2.566265E+01   7.405713E+00   2.213050E+01   3.004918E+01   9.260225E+00   8.369528E+01   6.650002E+01   5.278067E+01   4.721314E+01   9.971033E+01   8.365751E+01   1.462748E+02   1.522197E+02   1.459279E+02   3.128620E+01   1.660941E+01   5.166015E+01   6.214205E+01   9.382065E+01   6.464970E+01   6.612098E+01   1.099889E+02   7.576771E+01   9.202186E+01   3.278127E+01   4.170412E+01   7.307585E+01   3.561414E+01   1.820759E+01   2.210511E+01   4.101015E+01   8.085397E+01   1.310776E+02   6.424659E+01   9.929070E+01   2.230387E+02   4.564315E+01   7.288192E+01   3.854990E+01   3.490746E+01   5.368203E+01   5.434510E+01   7.050784E+01   9.940113E+01   2.924389E+01   3.802927E+01   5.914683E+01   7.926351E+01   1.390595E+02   2.434893E+02   3.569129E+02   2.465595E+02   9.107700E+01   3.474440E+01   2.346244E+01   1.766341E+01   1.850639E+01   7.350808E+01   4.869340E+01   3.118882E+01   1.220091E+02   2.619562E+02   1.081061E+02   1.307203E+02   1.941488E+02   1.875438E+02   1.086066E+02   7.772183E+01   8.124351E+01   3.956991E+02   2.694768E+02   9.437702E+01   8.997380E+01   4.606327E+01   6.294431E+01   2.340426E+01   6.301506E+01   1.229918E+02   3.716252E+02   3.716252E+02   3.898804E+02   9.822826E+01   9.822826E+01   9.088243E+01   7.697107E+01   7.697107E+01   1.326084E+02   1.326084E+02   1.326084E+02   1.353119E+02   1.353119E+02   1.353119E+02   6.151096E+01   6.151096E+01   6.151096E+01   6.151096E+01   6.151096E+01   4.341598E+01   4.341598E+01   4.341598E+01   4.341598E+01   4.341598E+01   2.785752E+01   2.785752E+01   2.785752E+01   2.785752E+01   2.785752E+01   2.785752E+01   2.785752E+01   3.573042E+01   3.573042E+01   3.573042E+01   3.573042E+01   3.573042E+01   3.573042E+01   3.573042E+01   3.573042E+01   3.573042E+01   3.573042E+01   3.254273E+01   3.254273E+01   3.254273E+01   3.254273E+01   3.254273E+01   3.254273E+01   3.254273E+01   3.254273E+01   3.254273E+01   2.830839E+01   2.830839E+01   2.830839E+01   2.830839E+01   2.830839E+01   2.830839E+01   2.830839E+01   8.481709E+01   8.481709E+01   8.481709E+01   8.481709E+01   8.481709E+01   3.328497E+01   3.328497E+01   3.328497E+01   3.328497E+01   5.434728E+01   5.434728E+01   5.434728E+01   6.934234E+01   6.934234E+01   9.188850E+01   9.188850E+01   6.328362E+01   6.328362E+01   1.539557E+02   2.019689E+02   4.735022E+01   4.735022E+01   5.689943E+01   2.918018E+01   8.588285E+01   6.403622E+01   1.000836E+02   1.029748E+02   1.927517E+02   1.783160E+02   3.086476E+02   9.213528E+01   4.297715E+01   5.452990E+01   5.969783E+01   6.749840E+01   9.498986E+01   1.547529E+02   1.018349E+02   9.379941E+01   5.437846E+01   1.965802E+01   4.686945E+01   4.157343E+01   2.273134E+02   7.684288E+01   4.955662E+01   8.295367E+01   9.009193E+01   1.035007E+02   6.424947E+01   1.314850E+02   1.892637E+02   1.849336E+02   1.508600E+02   2.294135E+02   5.884185E+01   9.395219E+01   2.954353E+01   6.193609E+01   3.240941E+01
   1.041093E+02   1.844116E+01   4.054042E+01   2.247820E+01   4.263875E+01   5.691275E+01   2.023870E+01   1.366171E+01   8.566101E+00   2.049192E+01   1.990857E+01   1.644665E+01   8.980088E+00   3.809864E+01   2.815492E+01   2.119143E+01   4.859701E+01   3.695738E+01   4.674783E+01   1.219557E+02   1.120395E+02   1.292803E+02   5.562188E+01   1.256209E+02   5.223502E+01   3.398343E+01   2.379063E+01   2.728873E+01   4.440801E+01   8.803102E+01   5.342853E+01   9.039053E+01   1.286281E+02   1.222145E+02   5.641456E+01   1.970995E+01   1.088569E+01   8.795646E+01   3.707427E+01   2.313220E+01   3.347204E+01   1.426597E+02   2.113409E+02   1.677050E+02   1.054542E+02   1.495881E+02   2.083791E+02   7.695969E+01   5.138056E+01   4.400063E+01   3.053863E+01   7.465829E+01   4.650653E+01   3.997589E+01   6.694845E+01   3.765895E+01   4.522638E+01   5.567737E+01   4.016258E+01   5.598972E+01   2.175118E+02   4.068461E+02   2.158836E+02   1.018040E+02   7.834109E+01   1.704880E+01   1.297378E+01   2.548801E+01   3.264846E+01   3.068088E+01   4.876529E+01   5.579220E+01   1.280140E+02   1.110840E+02   1.325366E+02   8.879401E+01   1.258395E+02   6.948899E+01   6.436120E+01   5.686604E+01   1.081584E+02   1.310221E+02   1.955655E+02   9.810227E+01   4.512153E+01   5.766733E+01   6.666846E+01   7.918067E+01   1.647514E+02   3.347409E+02   3.347409E+02   5.940963E+02   1.922738E+02   1.922738E+02   1.189989E+02   6.029435E+01   6.029435E+01   1.363288E+02   1.363288E+02   1.363288E+02   4.574768E+01   4.574768E+01   4.574768E+01   6.738586E+01   6.738586E+01   6.738586E+01   6.738586E+01   6.738586E+01   7.616305E+01   7.616305E+01   7.616305E+01   7.616305E+01   7.616305E+01   6.876511E+01   6.876511E+01   6.876511E+01   6.876511E+01   6.876511E+01   6.876511E+01   6.876511E+01   5.419925E+01   5.419925E+01   5.419925E+01   5.419925E+01   5.419925E+01   5.419925E+01   5.419925E+01   5.419925E+01   5.419925E+01   5.419925E+01   3.624661E+01   3.624661E+01   3.624661E+01   3.624661E+01   3.624661E+01   3.624661E+01   3.624661E+01   3.624661E+01   3.624661E+01   4.495148E+01   4.495148E+01   4.495148E+01   4.495148E+01   4.495148E+01   4.495148E+01   4.495148E+01   5.575805E+01   5.575805E+01   5.575805E+01   5.575805E+01   5.575805E+01   2.218886E+01   2.218886E+01   2.218886E+01   2.218886E+01   4.849347E+01   4.849347E+01   4.849347E+01   4.529763E+01   4.529763E+01   5.841042E+01   5.841042E+01   5.579902E+01   5.579902E+01   4.549625E+01   1.694859E+02   1.320474E+02   1.320474E+02   6.698930E+01   3.695242E+01   8.148743E+01   1.752460E+02   1.050795E+02   2.555294E+02   1.347775E+02   1.790867E+02   1.097577E+02   4.804354E+01   3.312886E+01   8.782138E+01   7.142863E+01   7.614471E+01   7.749686E+01   1.772991E+02   1.587844E+02   4.022909E+01   2.819491E+01   2.444046E+01   3.751846E+01   4.400075E+01   1.115258E+02   2.776340E+02   7.545075E+01   2.672712E+02   1.101608E+02   1.143662E+02   5.803072E+01   1.778034E+02   1.968348E+02   1.308209E+02   7.949696E+01   1.335205E+02   7.185219E+01   1.199022E+02   3.437200E+01   5.029445E+01   3.261064E+01
   2.697308E+02   3.621335E+01   4.553372E+01   5.356921E+01   9.983226E+01   5.216676E+01   1.858849E+01   2.884469E+01   1.673216E+01   2.023715E+01   3.102770E+01   1.036241E+01   6.843832E+00   2.895763E+01   2.116673E+01   4.742851E+01   3.633289E+01   3.638383E+01   4.348755E+01   4.857497E+01   7.294592E+01   9.895940E+01   2.781319E+01   4.144207E+01   3.624623E+01   3.733808E+01   3.899181E+01   2.502452E+01   2.691679E+01   6.301579E+01   9.558830E+01   8.567254E+01   8.313441E+01   5.311621E+01   2.882321E+01   1.253695E+01   9.057949E+00   6.240027E+01   8.217424E+01   2.066219E+01   2.551982E+01   1.159528E+02   1.243450E+02   1.877156E+02   8.948959E+01   5.506041E+01   5.815347E+01   6.093108E+01   3.909233E+01   2.899529E+01   7.569336E+01   1.179279E+02   5.566561E+01   2.600100E+01   6.178757E+01   5.848122E+01   3.294600E+01   5.223156E+01   3.272832E+01   3.471508E+01   1.255021E+02   3.522723E+02   1.757646E+02   7.773998E+01   2.822520E+01   1.111122E+01   8.219710E+00   3.627282E+01   1.763822E+01   7.327355E+01   5.999414E+01   6.175214E+01   1.277661E+02   1.540078E+02   6.266413E+01   6.277422E+01   1.272651E+02   9.823798E+01   4.479567E+01   5.572393E+01   5.960847E+01   2.106832E+02   1.480640E+02   8.412347E+01   1.676921E+02   5.977106E+01   1.779454E+02   1.756730E+02   3.356181E+02   1.974167E+02   1.974167E+02   4.145848E+02   1.585700E+02   1.585700E+02   1.514272E+02   1.927721E+02   1.927721E+02   1.309599E+02   1.309599E+02   1.309599E+02   4.553520E+01   4.553520E+01   4.553520E+01   3.074354E+01   3.074354E+01   3.074354E+01   3.074354E+01   3.074354E+01   6.517112E+01   6.517112E+01   6.517112E+01   6.517112E+01   6.517112E+01   3.785563E+01   3.785563E+01   3.785563E+01   3.785563E+01   3.785563E+01   3.785563E+01   3.785563E+01   4.201278E+01   4.201278E+01   4.201278E+01   4.201278E+01   4.201278E+01   4.201278E+01   4.201278E+01   4.201278E+01   4.201278E+01   4.201278E+01   3.679726E+01   3.679726E+01   3.679726E+01   3.679726E+01   3.679726E+01   3.679726E+01   3.679726E+01   3.679726E+01   3.679726E+01   3.297337E+01   3.297337E+01   3.297337E+01   3.297337E+01   3.297337E+01   3.297337E+01   3.297337E+01   3.494852E+01   3.494852E+01   3.494852E+01   3.494852E+01   3.494852E+01   1.685150E+01   1.685150E+01   1.685150E+01   1.685150E+01   5.448278E+01   5.448278E+01   5.448278E+01   6.633029E+01   6.633029E+01   7.401881E+01   7.401881E+01   2.896983E+01   2.896983E+01   5.730268E+01   1.188852E+02   6.919079E+01   6.919079E+01   7.701429E+01   8.363483E+01   1.023799E+02   2.154969E+02   2.330112E+02   2.453417E+02   6.132219E+01   2.920864E+02   1.203476E+02   7.432317E+01   2.316950E+01   5.700265E+01   6.904019E+01   1.037922E+02   5.796258E+01   6.436810E+01   1.072982E+02   3.520852E+01   4.734182E+01   2.287984E+01   5.764337E+01   9.015281E+01   1.000270E+02   2.865682E+02   1.143218E+02   3.259012E+02   1.032216E+02   1.175817E+02   6.629095E+01   1.451347E+02   1.461969E+02   2.620382E+02   9.567289E+01   4.570453E+01   1.001564E+02   7.385135E+01   8.261149E+01   9.789126E+01   5.344102E+01
   4.337090E+02   6.333543E+01   9.762140E+01   4.661168E+01   5.913180E+01   2.903737E+01   1.599412E+01   5.350330E+01   3.020502E+01   4.768094E+01   4.420403E+01   9.558761E+00   1.082972E+01   1.452937E+01   2.253276E+01   6.183013E+01   3.172743E+01   1.860571E+01   3.971701E+01   3.238644E+01   1.161654E+02   6.148631E+01   2.359165E+01   3.106227E+01   2.650348E+01   1.334776E+01   3.705510E+01   1.873470E+01   1.578026E+01   8.362489E+01   1.354439E+02   2.287804E+02   1.757459E+02   1.033138E+02   5.073885E+01   1.191059E+01   1.560108E+01   7.392865E+01   6.760265E+01   1.319121E+01   3.924471E+01   1.906350E+02   2.123957E+02   1.482878E+02   5.805101E+01   5.070795E+01   1.257124E+02   6.926039E+01   2.714465E+01   2.356523E+01   9.673695E+01   8.374461E+01   5.341454E+01   3.089402E+01   4.223838E+01   3.508693E+01   3.087525E+01   5.451263E+01   4.133320E+01   5.414326E+01   1.296927E+02   2.563613E+02   8.034119E+01   5.037138E+01   2.359926E+01   1.187488E+01   8.572068E+00   3.457343E+01   4.164112E+01   8.998675E+01   1.270427E+02   7.963609E+01   5.892399E+01   7.821231E+01   9.747407E+01   2.647844E+01   4.518441E+01   4.701744E+01   2.931618E+01   7.760548E+01   6.688123E+01   1.567252E+02   2.204679E+02   6.274176E+01   1.075515E+02   5.913571E+01   8.696661E+01   3.273473E+02   4.245731E+02   2.854495E+02   2.854495E+02   2.140657E+02   1.418029E+02   1.418029E+02   9.108147E+01   1.618549E+02   1.618549E+02   3.683838E+01   3.683838E+01   3.683838E+01   2.622435E+01   2.622435E+01   2.622435E+01   4.616453E+01   4.616453E+01   4.616453E+01   4.616453E+01   4.616453E+01   1.105917E+02   1.105917E+02   1.105917E+02   1.105917E+02   1.105917E+02   6.436876E+01   6.436876E+01   6.436876E+01   6.436876E+01   6.436876E+01   6.436876E+01   6.436876E+01   4.244675E+01   4.244675E+01   4.244675E+01   4.244675E+01   4.244675E+01   4.244675E+01   4.244675E+01   4.244675E+01   4.244675E+01   4.244675E+01   3.776028E+01   3.776028E+01   3.776028E+01   3.776028E+01   3.776028E+01   3.776028E+01   3.776028E+01   3.776028E+01   3.776028E+01   6.100039E+01   6.100039E+01   6.100039E+01   6.100039E+01   6.100039E+01   6.100039E+01   6.100039E+01   8.328890E+01   8.328890E+01   8.328890E+01   8.328890E+01   8.328890E+01   2.824249E+01   2.824249E+01   2.824249E+01   2.824249E+01   5.513813E+01   5.513813E+01   5.513813E+01   1.243291E+02   1.243291E+02   3.929545E+01   3.929545E+01   5.818557E+01   5.818557E+01   9.210611E+01   1.252226E+02   1.010003E+02   1.010003E+02   8.408941E+01   8.945775E+01   1.753317E+02   2.510602E+02   1.349007E+02   2.844833E+02   1.104635E+02   1.277668E+02   8.181607E+01   9.081379E+01   3.129541E+01   5.722691E+01   2.897353E+01   7.629953E+01   9.442968E+01   6.907230E+01   5.179136E+01   6.611584E+01   8.637313E+01   4.978995E+01   1.050669E+02   1.281548E+02   1.011497E+02   1.993709E+02   1.450904E+02   2.798569E+02   2.849529E+02   1.494221E+02   1.893062E+02   1.793113E+02   2.003474E+02   2.029177E+02   8.031551E+01   6.173293E+01   6.396372E+01   5.397366E+01   6.889613E+01   5.598037E+01   6.028515E+01