# LPF package for  MODFLOW-2005, generated by Flopy.
        53    -1E+30         0  
         1
         0
   0.000000E+00
         0
         0
INTERNAL               1 (207E15.6) -1 #hk layer 1                    
   2.085429E-02   2.401765E-02   8.290185E-02   5.373576E-02   8.664443E-02   4.493808E-02   1.629545E-02   1.739517E-02   1.369725E-02   1.161432E-02   1.341374E-02   3.881783E-02   6.775209E-02   9.652293E-02   1.071480E-01   6.555925E-02   2.813142E-02   5.491284E-02   4.634300E-02   2.582737E-02   5.880177E-02   2.667307E-02   3.680199E-02   5.723187E-02   3.975920E-02   7.007938E-02   8.373892E-02   4.572953E-02   3.034670E-02   8.176576E-02   1.098993E-01   4.875388E-02   8.827065E-02   4.230741E-02   1.054827E-01   2.276238E-02   4.684133E-02   6.463447E-02   1.717953E-01   7.529707E-02   8.838902E-02   5.273822E-02   2.081102E-02   1.497261E-02   2.566106E-02   5.405621E-02   6.769142E-02   2.635528E-02   7.836219E-02   1.786145E-01   2.132769E-02   2.242716E-02   5.640589E-02   1.520642E-02   2.869320E-02   1.801288E-02   3.643486E-02   2.244702E-02   1.904083E-02   2.989961E-02   5.534095E-02   3.118902E-02   1.901806E-02   8.614047E-02   6.949659E-02   5.256037E-02   3.107009E-02   1.724765E-01   1.658303E-01   1.345294E-01   1.166360E-01   3.535758E-02   1.874529E-02   3.453564E-02   2.530178E-02   1.691007E-02   2.545867E-02   2.667875E-02   4.002140E-02   1.935721E-02   2.554977E-02   8.533671E-02   1.816712E-01   1.352147E-01   7.943990E-02   5.607748E-02   1.620834E-02   2.803605E-02   2.751345E-02   9.909105E-02   9.909105E-02   1.095216E-01   1.153987E-01   1.153987E-01   5.944170E-02   2.388133E-02   2.388133E-02   1.054849E-02   1.054849E-02   1.054849E-02   2.713363E-02   2.713363E-02   2.713363E-02   5.348334E-02   5.348334E-02   5.348334E-02   5.348334E-02   5.348334E-02   2.837689E-02   2.837689E-02   2.837689E-02   2.837689E-02   2.837689E-02   2.332105E-02   2.332105E-02   2.332105E-02   2.332105E-02   2.332105E-02   2.332105E-02   2.332105E-02   2.816399E-02   2.816399E-02   2.816399E-02   2.816399E-02   2.816399E-02   2.816399E-02   2.816399E-02   2.816399E-02   2.816399E-02   2.816399E-02   4.909019E-02   4.909019E-02   4.909019E-02   4.909019E-02   4.909019E-02   4.909019E-02   4.909019E-02   4.909019E-02   4.909019E-02   1.913578E-02   1.913578E-02   1.913578E-02   1.913578E-02   1.913578E-02   1.913578E-02   1.913578E-02   2.701085E-02   2.701085E-02   2.701085E-02   2.701085E-02   2.701085E-02   7.514502E-02   7.514502E-02   7.514502E-02   7.514502E-02   5.679209E-02   5.679209E-02   5.679209E-02   2.473893E-02   2.473893E-02   1.737028E-02   1.737028E-02   2.221797E-02   2.221797E-02   5.075793E-03   2.764798E-03   4.026650E-03   4.026650E-03   6.669877E-03   1.139884E-02   3.713275E-02   9.335855E-03   2.152833E-02   2.482957E-02   2.476276E-02   1.172629E-01   9.845288E-02   5.804238E-02   8.608974E-02   6.963066E-02   7.449097E-02   9.770190E-02   1.788037E-02   8.721446E-03   1.307749E-02   8.694670E-02   3.511751E-01   3.682980E-01   4.023321E-01   6.344055E-02   2.336033E-02   4.362462E-02   1.850211E-02   1.463085E-02   2.086506E-02   1.764636E-02   7.490875E-03   6.662684E-03   1.711557E-03   4.742061E-03   1.139182E-02   2.460383E-02   1.165012E-02   4.907393E-03   1.393554E-02   1.494939E-02   5.127855E-02
   1.295533E-02   2.043839E-02   6.170966E-02   5.973262E-02   5.354371E-02   4.963931E-02   1.579542E-02   4.728137E-03   7.826065E-03   3.611601E-02   2.246696E-02   2.385940E-02   7.252421E-02   6.360856E-02   9.569662E-02   1.134961E-01   1.078083E-01   7.286601E-02   5.680038E-02   2.874708E-02   1.322938E-02   2.735210E-02   5.362032E-02   6.118191E-02   2.277391E-02   7.752614E-02   1.016278E-01   2.307691E-02   2.302995E-02   6.401343E-02   1.152656E-01   5.809290E-02   5.151870E-02   1.242010E-01   8.481892E-02   8.815459E-02   4.216504E-02   1.150711E-01   7.708439E-02   7.829148E-02   4.817280E-02   7.814613E-02   1.208878E-02   1.749640E-02   4.121486E-02   7.048083E-02   9.936105E-02   3.332397E-02   6.793268E-02   1.019707E-01   1.220969E-02   5.283964E-03   1.184439E-02   1.540618E-02   3.377965E-02   1.879554E-02   3.475707E-02   5.808767E-02   1.948029E-02   2.789079E-02   7.397112E-02   9.380026E-02   2.139335E-02   5.846879E-02   6.282368E-02   1.098445E-01   7.927352E-02   9.059731E-02   1.145791E-01   2.980339E-01   8.026774E-02   2.988766E-02   1.308400E-02   2.812416E-02   5.372288E-02   1.299531E-02   3.192965E-02   5.026361E-02   9.796555E-02   2.240447E-02   1.320366E-02   6.987324E-02   1.806140E-01   1.693671E-01   1.609947E-01   6.615265E-02   1.927778E-02   2.410783E-02   2.882202E-02   5.971990E-02   5.971990E-02   1.271240E-01   5.281623E-02   5.281623E-02   2.067673E-02   1.873156E-02   1.873156E-02   7.648922E-03   7.648922E-03   7.648922E-03   1.594707E-02   1.594707E-02   1.594707E-02   2.884086E-02   2.884086E-02   2.884086E-02   2.884086E-02   2.884086E-02   1.877772E-02   1.877772E-02   1.877772E-02   1.877772E-02   1.877772E-02   2.379568E-02   2.379568E-02   2.379568E-02   2.379568E-02   2.379568E-02   2.379568E-02   2.379568E-02   1.972087E-02   1.972087E-02   1.972087E-02   1.972087E-02   1.972087E-02   1.972087E-02   1.972087E-02   1.972087E-02   1.972087E-02   1.972087E-02   3.206250E-02   3.206250E-02   3.206250E-02   3.206250E-02   3.206250E-02   3.206250E-02   3.206250E-02   3.206250E-02   3.206250E-02   2.056261E-02   2.056261E-02   2.056261E-02   2.056261E-02   2.056261E-02   2.056261E-02   2.056261E-02   5.492095E-02   5.492095E-02   5.492095E-02   5.492095E-02   5.492095E-02   8.263188E-02   8.263188E-02   8.263188E-02   8.263188E-02   6.081575E-02   6.081575E-02   6.081575E-02   3.532712E-02   3.532712E-02   2.425784E-02   2.425784E-02   1.111868E-02   1.111868E-02   4.242616E-03   5.095438E-03   5.676699E-03   5.676699E-03   7.505169E-03   1.702912E-02   3.305287E-02   1.724583E-02   1.785876E-02   1.154313E-02   1.943669E-02   1.215747E-01   7.064658E-02   5.609055E-02   1.510868E-01   1.032281E-01   1.103778E-01   1.433526E-01   2.834701E-02   6.964877E-03   1.521851E-02   9.690508E-02   2.486844E-01   4.920226E-01   3.668621E-01   5.983758E-02   8.241402E-03   2.695938E-02   1.409315E-02   1.107951E-02   2.383794E-02   2.833669E-02   2.234721E-02   7.772890E-03   2.600115E-03   3.378225E-03   6.713261E-03   1.851767E-02   1.055649E-02   6.266466E-03   1.892122E-02   3.079916E-02   2.476887E-02
   2.380882E-02   3.628230E-02   8.833671E-02   4.361526E-02   4.739852E-02   2.894244E-02   1.905414E-02   1.008497E-02   8.592525E-03   3.314132E-02   2.294068E-02   1.585154E-02   4.394526E-02   6.603044E-02   9.826027E-02   1.333300E-01   1.240812E-01   8.731918E-02   9.008230E-02   4.319431E-02   1.044421E-02   1.729460E-02   2.648997E-02   3.557858E-02   1.815568E-02   1.233551E-01   6.531147E-02   5.936372E-02   4.577870E-02   9.579027E-02   6.526872E-02   5.550799E-02   5.489333E-02   5.503822E-02   1.995470E-01   2.730401E-01   3.459518E-02   7.243734E-02   4.813132E-02   7.782302E-02   3.220713E-02   4.295278E-02   3.210727E-02   2.440748E-02   6.608710E-02   1.375846E-01   6.892434E-02   8.119776E-02   7.128699E-02   2.353684E-02   1.025690E-02   4.105128E-03   5.879596E-03   2.720567E-03   3.211681E-02   2.379061E-02   4.082785E-02   4.768890E-02   5.504093E-02   2.882602E-02   3.889398E-02   8.379620E-02   6.729296E-02   4.201407E-02   7.619260E-02   9.003041E-02   1.096275E-01   7.870967E-02   2.175496E-01   1.605867E-01   6.535860E-02   2.516893E-02   2.681097E-02   2.808488E-02   4.828405E-02   2.293476E-02   2.369033E-02   4.552600E-02   8.345911E-02   2.165521E-02   1.315026E-02   4.873420E-02   7.845359E-02   1.597628E-01   1.447736E-01   8.421388E-02   1.840430E-02   1.585466E-02   1.793559E-02   8.020167E-02   8.020167E-02   7.611998E-02   4.702806E-02   4.702806E-02   1.719037E-02   3.096440E-02   3.096440E-02   1.092194E-02   1.092194E-02   1.092194E-02   7.968381E-03   7.968381E-03   7.968381E-03   1.947129E-02   1.947129E-02   1.947129E-02   1.947129E-02   1.947129E-02   3.417094E-02   3.417094E-02   3.417094E-02   3.417094E-02   3.417094E-02   2.629947E-02   2.629947E-02   2.629947E-02   2.629947E-02   2.629947E-02   2.629947E-02   2.629947E-02   2.765488E-02   2.765488E-02   2.765488E-02   2.765488E-02   2.765488E-02   2.765488E-02   2.765488E-02   2.765488E-02   2.765488E-02   2.765488E-02   3.119438E-02   3.119438E-02   3.119438E-02   3.119438E-02   3.119438E-02   3.119438E-02   3.119438E-02   3.119438E-02   3.119438E-02   2.608508E-02   2.608508E-02   2.608508E-02   2.608508E-02   2.608508E-02   2.608508E-02   2.608508E-02   9.951527E-02   9.951527E-02   9.951527E-02   9.951527E-02   9.951527E-02   6.637894E-02   6.637894E-02   6.637894E-02   6.637894E-02   7.578313E-02   7.578313E-02   7.578313E-02   6.176367E-02   6.176367E-02   2.305809E-02   2.305809E-02   1.339399E-02   1.339399E-02   9.053536E-03   1.040994E-02   5.324190E-03   5.324190E-03   1.285180E-02   1.132408E-02   3.178404E-02   1.351952E-02   1.349389E-02   1.471133E-02   4.201828E-02   1.092615E-01   5.373806E-02   7.559807E-02   2.671913E-01   1.807716E-01   7.801147E-02   9.623841E-02   2.021820E-02   4.424579E-03   2.922308E-02   1.081107E-01   1.016907E-01   5.985128E-01   2.601871E-01   3.900314E-02   2.831110E-02   1.717394E-02   1.302784E-02   1.705253E-02   3.037921E-02   3.532620E-02   3.523519E-02   4.549530E-03   2.894651E-03   5.309619E-03   5.791485E-03   1.587993E-02   1.169676E-02   5.563330E-03   1.433340E-02   3.536142E-02   3.771336E-02
   1.803216E-02   3.950383E-02   4.968213E-02   5.627648E-02   4.825970E-02   6.543430E-02   2.235365E-02   9.355562E-03   1.012217E-02   1.265017E-02   2.321578E-02   1.629211E-02   7.744219E-02   6.397644E-02   6.655075E-02   1.390052E-01   1.853654E-01   8.188062E-02   6.708123E-02   2.231449E-02   2.124589E-02   1.873700E-02   2.154354E-02   1.038275E-02   2.766514E-02   4.568151E-02   1.161145E-01   4.820658E-02   5.756770E-02   2.490869E-02   2.875948E-02   8.041938E-02   2.645418E-02   6.726322E-02   1.843921E-01   1.673570E-01   1.719272E-02   1.587823E-02   1.914361E-02   5.933868E-02   2.019545E-02   2.572787E-02   4.259332E-02   1.053117E-01   9.869312E-02   1.746313E-01   1.299719E-01   6.860031E-02   1.521530E-02   6.283027E-03   5.151551E-03   1.969557E-03   3.669496E-03   5.262488E-03   2.223877E-02   3.957594E-02   2.991761E-02   6.382944E-02   6.719907E-02   5.014759E-02   4.832785E-02   6.735463E-02   5.081035E-02   2.676876E-02   8.309301E-02   1.265612E-01   1.596995E-01   8.624910E-02   1.920095E-01   9.623192E-02   3.652750E-02   1.540760E-02   9.496086E-03   2.228830E-02   2.540779E-02   3.216205E-02   3.447271E-02   5.410912E-02   6.875765E-02   1.736022E-02   3.308376E-02   6.087510E-02   8.643413E-02   9.740834E-02   1.746472E-01   2.901735E-02   3.582582E-02   2.535311E-02   2.179702E-02   6.964901E-02   6.964901E-02   4.290577E-02   2.132145E-02   2.132145E-02   1.442933E-02   1.357692E-02   1.357692E-02   1.635966E-02   1.635966E-02   1.635966E-02   6.061918E-03   6.061918E-03   6.061918E-03   1.371333E-02   1.371333E-02   1.371333E-02   1.371333E-02   1.371333E-02   2.400443E-02   2.400443E-02   2.400443E-02   2.400443E-02   2.400443E-02   2.225277E-02   2.225277E-02   2.225277E-02   2.225277E-02   2.225277E-02   2.225277E-02   2.225277E-02   1.584093E-02   1.584093E-02   1.584093E-02   1.584093E-02   1.584093E-02   1.584093E-02   1.584093E-02   1.584093E-02   1.584093E-02   1.584093E-02   2.526194E-02   2.526194E-02   2.526194E-02   2.526194E-02   2.526194E-02   2.526194E-02   2.526194E-02   2.526194E-02   2.526194E-02   3.972151E-02   3.972151E-02   3.972151E-02   3.972151E-02   3.972151E-02   3.972151E-02   3.972151E-02   8.992095E-02   8.992095E-02   8.992095E-02   8.992095E-02   8.992095E-02   4.365884E-02   4.365884E-02   4.365884E-02   4.365884E-02   7.386609E-02   7.386609E-02   7.386609E-02   9.571657E-02   9.571657E-02   3.898465E-02   3.898465E-02   1.615702E-02   1.615702E-02   1.044031E-02   1.333077E-02   1.141446E-02   1.141446E-02   1.310582E-02   1.754585E-02   1.970570E-02   2.256153E-02   8.912377E-03   5.308333E-02   5.316595E-02   7.842138E-02   9.273386E-02   1.264162E-01   1.764002E-01   2.505946E-01   6.473795E-02   2.739278E-02   3.938797E-02   2.118827E-02   7.637156E-02   1.943856E-01   1.113352E-01   1.352721E-01   2.364863E-01   4.751322E-02   3.997092E-02   4.311816E-02   1.454721E-02   2.000955E-02   5.599844E-02   1.344786E-01   3.804497E-02   7.387611E-03   4.528008E-03   2.479818E-03   1.012321E-02   1.324948E-02   1.492581E-02   9.414217E-03   7.958786E-03   5.209632E-02   3.560469E-02
   4.370047E-02   2.967053E-02   5.610250E-02   7.796849E-02   5.957438E-02   2.497870E-02   1.235219E-02   1.787533E-02   9.654471E-03   1.586711E-02   2.600269E-02   2.511308E-02   3.914241E-02   3.612112E-02   7.533905E-02   1.144491E-01   9.777420E-02   6.128206E-02   4.451232E-02   3.291263E-02   1.928958E-02   1.232519E-02   2.140721E-02   1.187723E-02   1.498235E-02   4.870822E-02   1.027038E-01   4.466706E-02   2.959304E-02   1.149184E-02   2.615845E-02   4.614367E-02   6.267556E-02   3.907911E-02   1.347450E-01   5.816068E-02   2.171052E-02   1.030614E-02   1.118638E-02   2.088488E-02   3.353297E-02   6.518139E-03   3.098479E-02   1.030539E-01   2.096983E-01   1.606618E-01   6.623639E-02   3.834067E-02   8.304166E-03   8.226634E-03   5.243228E-03   2.721501E-03   8.794277E-03   3.616679E-03   1.182071E-02   2.985834E-02   4.634514E-02   6.993175E-02   6.258548E-02   5.501286E-02   4.059100E-02   9.504361E-02   8.258256E-02   3.297879E-02   8.005800E-02   9.547516E-02   2.279680E-01   6.551276E-02   3.312420E-02   6.386962E-02   2.142362E-02   1.883152E-02   1.384265E-02   3.355709E-02   1.085759E-02   1.039299E-02   8.694416E-02   1.130207E-01   5.270008E-02   2.218533E-02   2.287237E-02   2.962642E-02   3.286882E-02   5.603627E-02   1.268717E-01   3.626044E-02   5.146764E-02   5.284647E-02   1.076884E-02   3.496771E-02   3.496771E-02   2.597592E-02   1.425532E-02   1.425532E-02   1.878333E-02   8.605678E-03   8.605678E-03   8.811187E-03   8.811187E-03   8.811187E-03   1.865994E-02   1.865994E-02   1.865994E-02   1.853703E-02   1.853703E-02   1.853703E-02   1.853703E-02   1.853703E-02   1.228472E-02   1.228472E-02   1.228472E-02   1.228472E-02   1.228472E-02   2.168587E-02   2.168587E-02   2.168587E-02   2.168587E-02   2.168587E-02   2.168587E-02   2.168587E-02   1.326662E-02   1.326662E-02   1.326662E-02   1.326662E-02   1.326662E-02   1.326662E-02   1.326662E-02   1.326662E-02   1.326662E-02   1.326662E-02   2.697536E-02   2.697536E-02   2.697536E-02   2.697536E-02   2.697536E-02   2.697536E-02   2.697536E-02   2.697536E-02   2.697536E-02   4.270804E-02   4.270804E-02   4.270804E-02   4.270804E-02   4.270804E-02   4.270804E-02   4.270804E-02   4.371405E-02   4.371405E-02   4.371405E-02   4.371405E-02   4.371405E-02   3.476481E-02   3.476481E-02   3.476481E-02   3.476481E-02   7.945845E-02   7.945845E-02   7.945845E-02   7.268589E-02   7.268589E-02   3.261221E-02   3.261221E-02   1.855353E-02   1.855353E-02   1.115397E-02   1.327098E-02   9.165569E-03   9.165569E-03   2.255963E-02   1.625337E-02   2.253733E-02   2.135601E-02   1.043158E-02   2.903658E-02   2.336236E-02   5.634465E-02   7.288368E-02   5.635190E-02   1.062295E-01   1.902751E-01   4.988234E-02   2.703508E-02   1.662209E-02   3.521116E-02   5.957482E-02   1.279525E-01   1.007840E-01   8.781160E-02   1.024964E-01   6.204444E-02   8.822665E-02   4.601649E-02   2.279460E-02   2.231732E-02   7.648505E-02   1.681704E-01   3.360657E-02   1.584921E-02   6.599149E-03   4.314539E-03   2.330370E-02   6.048743E-03   1.362661E-02   6.143454E-03   1.609295E-02   5.280655E-02   7.470448E-02
   4.692697E-02   2.490323E-02   5.555510E-02   3.952522E-02   3.187827E-02   3.423224E-02   3.157665E-02   2.740407E-02   3.102534E-02   2.947958E-02   3.345603E-02   1.613254E-02   8.042122E-02   5.251836E-02   5.801048E-02   6.237701E-02   7.558393E-02   3.290370E-02   2.225219E-02   7.900883E-02   2.081584E-02   2.445387E-02   3.477312E-02   2.065454E-02   2.651382E-02   5.222202E-02   6.003784E-02   9.447803E-02   2.678965E-02   1.098030E-02   2.349601E-02   3.652860E-02   2.441072E-02   3.043136E-02   1.360856E-01   4.632659E-02   1.985555E-02   1.182401E-02   1.379946E-02   1.734490E-02   3.228454E-02   9.924470E-03   4.377319E-02   1.994015E-01   1.329584E-01   1.311984E-01   2.519293E-02   2.205516E-02   1.833003E-02   5.582174E-03   5.231104E-03   3.763365E-03   1.039167E-02   4.546186E-03   1.454823E-02   2.373590E-02   3.586233E-02   1.042430E-01   7.710762E-02   3.390269E-02   7.229868E-02   3.636635E-02   1.084208E-01   6.505939E-02   1.197586E-01   1.111858E-01   1.273381E-01   6.583727E-02   2.126080E-02   1.878390E-02   1.947443E-02   1.082419E-02   2.558462E-02   2.213891E-02   1.069400E-02   8.569404E-03   4.491362E-02   7.622765E-02   8.062122E-02   3.939288E-02   6.878544E-02   4.175705E-02   6.598614E-02   7.856980E-02   1.073735E-01   8.830198E-02   6.868216E-02   2.455059E-02   1.277874E-02   3.293721E-02   3.293721E-02   1.443607E-02   1.820161E-02   1.820161E-02   1.983448E-02   1.840194E-02   1.840194E-02   2.585092E-02   2.585092E-02   2.585092E-02   3.417806E-02   3.417806E-02   3.417806E-02   2.680119E-02   2.680119E-02   2.680119E-02   2.680119E-02   2.680119E-02   1.754533E-02   1.754533E-02   1.754533E-02   1.754533E-02   1.754533E-02   3.125662E-02   3.125662E-02   3.125662E-02   3.125662E-02   3.125662E-02   3.125662E-02   3.125662E-02   1.214318E-02   1.214318E-02   1.214318E-02   1.214318E-02   1.214318E-02   1.214318E-02   1.214318E-02   1.214318E-02   1.214318E-02   1.214318E-02   2.093096E-02   2.093096E-02   2.093096E-02   2.093096E-02   2.093096E-02   2.093096E-02   2.093096E-02   2.093096E-02   2.093096E-02   2.614059E-02   2.614059E-02   2.614059E-02   2.614059E-02   2.614059E-02   2.614059E-02   2.614059E-02   5.813550E-02   5.813550E-02   5.813550E-02   5.813550E-02   5.813550E-02   4.808285E-02   4.808285E-02   4.808285E-02   4.808285E-02   5.835910E-02   5.835910E-02   5.835910E-02   3.848498E-02   3.848498E-02   3.665706E-02   3.665706E-02   2.195155E-02   2.195155E-02   3.238099E-02   1.145919E-02   2.080362E-02   2.080362E-02   3.724001E-02   4.861741E-02   1.095325E-02   2.097312E-02   2.337778E-02   2.023406E-02   3.298441E-02   5.551560E-02   3.903971E-02   3.501305E-02   1.075383E-01   9.968107E-02   5.227125E-02   3.525986E-02   2.323581E-02   4.007106E-02   5.110022E-02   4.743941E-02   6.414700E-02   8.496654E-02   6.816254E-02   7.097193E-02   6.977834E-02   1.773492E-02   2.155425E-02   4.024781E-02   3.064215E-02   5.493207E-02   4.106512E-02   3.661711E-02   1.589738E-02   3.377570E-03   9.619939E-03   6.070114E-03   1.141111E-02   7.508685E-03   3.075428E-02   1.097908E-01   3.919669E-02
   2.699877E-02   1.126047E-02   2.740490E-02   3.572753E-02   3.347515E-02   3.121859E-02   3.924095E-02   2.024245E-02   2.691700E-02   3.869024E-02   2.644673E-02   1.126554E-02   4.298609E-02   2.249198E-02   8.174079E-02   1.106562E-01   5.446160E-02   3.460207E-02   2.253705E-02   4.204626E-02   4.610436E-02   2.543044E-02   2.165835E-02   2.515719E-02   2.305480E-02   2.497937E-02   3.718609E-02   5.075235E-02   7.255999E-02   2.534850E-02   1.999943E-02   7.656705E-02   5.327379E-02   3.483962E-02   1.347491E-01   5.222800E-02   4.873061E-02   2.163376E-02   2.979209E-02   3.756382E-02   3.784366E-02   1.337734E-02   2.608772E-02   1.001105E-01   1.091072E-01   1.267457E-01   2.241687E-02   3.169157E-02   2.932427E-02   1.896155E-02   1.063619E-02   3.100553E-03   8.194492E-03   1.219704E-02   1.463213E-02   1.274170E-02   2.958444E-02   3.333857E-02   4.908738E-02   2.108904E-02   7.027327E-02   2.424580E-02   6.230490E-02   4.394373E-02   3.916337E-02   1.060106E-01   1.653545E-01   6.530148E-02   2.072064E-02   8.172392E-03   1.247069E-02   1.994794E-02   1.245693E-02   2.346548E-02   1.094476E-02   1.560267E-02   4.889721E-02   7.265653E-02   7.961649E-02   6.536997E-02   1.528764E-01   6.648917E-02   2.732548E-02   8.484261E-02   1.918454E-01   8.648670E-02   3.930806E-02   2.412118E-02   1.042046E-02   1.644959E-02   1.644959E-02   9.994332E-03   2.184617E-02   2.184617E-02   1.781190E-02   2.056376E-02   2.056376E-02   3.402653E-02   3.402653E-02   3.402653E-02   6.248812E-02   6.248812E-02   6.248812E-02   5.444225E-02   5.444225E-02   5.444225E-02   5.444225E-02   5.444225E-02   9.907716E-03   9.907716E-03   9.907716E-03   9.907716E-03   9.907716E-03   1.552240E-02   1.552240E-02   1.552240E-02   1.552240E-02   1.552240E-02   1.552240E-02   1.552240E-02   8.627453E-03   8.627453E-03   8.627453E-03   8.627453E-03   8.627453E-03   8.627453E-03   8.627453E-03   8.627453E-03   8.627453E-03   8.627453E-03   1.374520E-02   1.374520E-02   1.374520E-02   1.374520E-02   1.374520E-02   1.374520E-02   1.374520E-02   1.374520E-02   1.374520E-02   5.500637E-02   5.500637E-02   5.500637E-02   5.500637E-02   5.500637E-02   5.500637E-02   5.500637E-02   7.369974E-02   7.369974E-02   7.369974E-02   7.369974E-02   7.369974E-02   4.564979E-02   4.564979E-02   4.564979E-02   4.564979E-02   3.501029E-02   3.501029E-02   3.501029E-02   3.174511E-02   3.174511E-02   4.651074E-02   4.651074E-02   2.681470E-02   2.681470E-02   6.627132E-02   2.611927E-02   3.736137E-02   3.736137E-02   2.428195E-02   1.255357E-01   2.560279E-02   2.817987E-02   3.862605E-02   1.873186E-02   2.747943E-02   3.227514E-02   4.679555E-02   3.815467E-02   2.979066E-02   5.314845E-02   2.606624E-02   3.035196E-02   5.320426E-02   1.002579E-01   5.922841E-02   5.651341E-02   6.201846E-02   6.962413E-02   5.415211E-02   4.031647E-02   5.075742E-02   3.202245E-02   4.040914E-02   5.304236E-02   3.033785E-02   6.670936E-02   2.166154E-02   2.141213E-02   8.579954E-03   6.869483E-03   1.248367E-02   8.067150E-03   8.946877E-03   1.401374E-02   2.238625E-02   7.434621E-02   2.389727E-02
   2.361333E-02   2.528997E-02   3.295956E-02   4.366231E-02   6.128246E-02   2.294280E-02   2.970438E-02   4.956832E-02   3.834862E-02   5.359399E-02   7.012796E-03   1.563850E-02   2.621521E-02   3.632118E-02   1.152422E-01   7.932100E-02   6.025770E-02   3.242782E-02   3.687752E-02   3.309600E-02   4.938477E-02   2.671644E-02   2.737800E-02   1.923015E-02   1.844648E-02   1.209760E-02   1.597342E-02   3.672393E-02   3.703834E-02   1.585785E-02   3.745193E-02   5.093432E-02   2.117556E-02   3.978050E-02   5.107360E-02   3.598255E-02   6.772050E-02   6.714366E-02   5.005860E-02   3.710416E-02   1.850451E-02   1.708443E-02   5.961594E-02   5.986235E-02   1.072197E-01   1.294999E-01   5.265045E-02   4.349355E-02   3.535399E-02   2.049984E-02   4.357675E-02   1.737162E-02   1.410935E-02   2.610165E-02   1.185996E-02   7.635226E-03   1.014684E-02   1.626993E-02   9.495130E-02   5.200151E-02   3.148737E-02   9.147959E-03   1.986437E-02   4.263611E-02   3.216601E-02   1.152920E-01   3.980881E-02   8.544873E-02   1.060387E-02   4.370940E-03   1.459610E-02   1.482113E-02   2.622869E-02   3.088400E-02   2.291432E-02   1.901323E-02   3.764552E-02   3.950721E-02   4.853235E-02   4.205007E-02   1.001874E-01   5.846967E-02   5.193400E-02   9.789909E-02   1.075347E-01   1.134702E-01   6.267682E-02   4.372425E-02   9.564407E-03   1.379687E-02   1.379687E-02   2.481955E-02   2.577108E-02   2.577108E-02   1.908977E-02   1.133358E-02   1.133358E-02   6.046885E-02   6.046885E-02   6.046885E-02   3.715454E-02   3.715454E-02   3.715454E-02   3.639937E-02   3.639937E-02   3.639937E-02   3.639937E-02   3.639937E-02   1.612090E-02   1.612090E-02   1.612090E-02   1.612090E-02   1.612090E-02   1.799566E-02   1.799566E-02   1.799566E-02   1.799566E-02   1.799566E-02   1.799566E-02   1.799566E-02   1.564943E-02   1.564943E-02   1.564943E-02   1.564943E-02   1.564943E-02   1.564943E-02   1.564943E-02   1.564943E-02   1.564943E-02   1.564943E-02   4.171539E-02   4.171539E-02   4.171539E-02   4.171539E-02   4.171539E-02   4.171539E-02   4.171539E-02   4.171539E-02   4.171539E-02   9.840301E-02   9.840301E-02   9.840301E-02   9.840301E-02   9.840301E-02   9.840301E-02   9.840301E-02   1.299794E-01   1.299794E-01   1.299794E-01   1.299794E-01   1.299794E-01   8.376086E-02   8.376086E-02   8.376086E-02   8.376086E-02   6.546575E-02   6.546575E-02   6.546575E-02   3.237516E-02   3.237516E-02   6.251054E-02   6.251054E-02   3.619863E-02   3.619863E-02   6.757662E-02   8.923402E-02   7.886659E-02   7.886659E-02   5.713071E-02   1.193451E-01   6.741562E-02   5.414106E-02   7.348308E-02   1.740232E-02   8.038037E-03   1.356307E-02   2.177575E-02   3.108087E-02   2.114195E-02   2.904868E-02   4.541169E-02   2.119159E-02   9.827895E-02   6.758565E-02   5.407732E-02   1.440160E-01   4.226681E-02   5.046441E-02   4.559055E-02   4.831144E-02   6.722888E-02   4.890536E-02   2.330253E-02   3.182575E-02   3.829443E-02   7.564843E-02   2.656168E-02   2.654220E-02   9.431222E-03   6.961294E-03   1.304478E-02   4.144983E-03   4.162238E-03   1.105543E-02   3.178962E-02   3.918368E-02   3.723143E-02
   2.815209E-02   3.381745E-02   1.902633E-02   4.069084E-02   2.783964E-02   1.758003E-02   3.123843E-02   2.349419E-02   6.003878E-02   4.527282E-02   1.823250E-02   1.173042E-02   1.834765E-02   4.336578E-02   6.383538E-02   6.589772E-02   4.098944E-02   4.588803E-02   2.976233E-02   1.854093E-02   9.936436E-02   5.331675E-02   1.801483E-02   2.789163E-02   1.006344E-02   2.214660E-02   1.919028E-02   3.375832E-02   1.035865E-01   1.314523E-02   1.287136E-01   6.457460E-02   3.788016E-02   3.003830E-02   3.217413E-02   2.727858E-02   3.304007E-02   4.895927E-02   2.053735E-02   4.444951E-02   4.450405E-02   2.519323E-02   3.210982E-02   8.399858E-02   6.596740E-02   1.301309E-01   4.150966E-02   2.555553E-02   5.079052E-02   4.624665E-02   5.896343E-02   1.788450E-02   3.010728E-02   2.421259E-02   2.585847E-02   1.428857E-02   1.237249E-02   2.590945E-02   5.491952E-02   3.085266E-02   4.121609E-02   1.505113E-02   1.507127E-02   1.225575E-02   2.144573E-02   2.203821E-01   5.250268E-02   1.954746E-01   7.192121E-02   9.079003E-03   1.279700E-02   7.032165E-03   1.544558E-02   1.216740E-02   2.727225E-02   1.910710E-02   2.252967E-02   1.556740E-02   2.265800E-02   4.474465E-02   5.539050E-02   1.108432E-01   5.298831E-02   1.119498E-01   1.299912E-01   6.326605E-02   6.642180E-02   3.181110E-02   1.489790E-02   1.261591E-02   1.261591E-02   1.770807E-02   3.712265E-02   3.712265E-02   2.598438E-02   2.007921E-02   2.007921E-02   4.951695E-02   4.951695E-02   4.951695E-02   5.186261E-02   5.186261E-02   5.186261E-02   3.161988E-02   3.161988E-02   3.161988E-02   3.161988E-02   3.161988E-02   1.427007E-02   1.427007E-02   1.427007E-02   1.427007E-02   1.427007E-02   3.239458E-02   3.239458E-02   3.239458E-02   3.239458E-02   3.239458E-02   3.239458E-02   3.239458E-02   3.897320E-02   3.897320E-02   3.897320E-02   3.897320E-02   3.897320E-02   3.897320E-02   3.897320E-02   3.897320E-02   3.897320E-02   3.897320E-02   6.124591E-02   6.124591E-02   6.124591E-02   6.124591E-02   6.124591E-02   6.124591E-02   6.124591E-02   6.124591E-02   6.124591E-02   5.227364E-02   5.227364E-02   5.227364E-02   5.227364E-02   5.227364E-02   5.227364E-02   5.227364E-02   1.535496E-01   1.535496E-01   1.535496E-01   1.535496E-01   1.535496E-01   1.038683E-01   1.038683E-01   1.038683E-01   1.038683E-01   3.324554E-02   3.324554E-02   3.324554E-02   3.274084E-02   3.274084E-02   1.107421E-01   1.107421E-01   9.882882E-02   9.882882E-02   9.305090E-02   1.088757E-01   1.059654E-01   1.059654E-01   7.184087E-02   1.753705E-01   9.069402E-02   2.871467E-02   5.750953E-02   1.228384E-02   9.294340E-03   1.649181E-02   2.990529E-02   2.265663E-02   8.203845E-03   7.146643E-03   9.168641E-02   4.353557E-02   1.445025E-01   6.431437E-02   5.728799E-02   1.203525E-01   2.423495E-02   2.459866E-02   6.840838E-02   8.339024E-02   8.585202E-02   5.213479E-02   2.972313E-02   3.288636E-02   4.603149E-02   4.921164E-02   2.695335E-02   3.233728E-02   1.658441E-02   9.382796E-03   1.343307E-02   7.430178E-03   8.908447E-03   1.008156E-02   2.384557E-02   3.057149E-02   5.980803E-02