# LPF package for  MODFLOW-2005, generated by Flopy.
        53    -1E+30         0  
         1
         0
   0.000000E+00
         0
         0
INTERNAL               1 (207E15.6) -1 #hk layer 1                    
   2.056425E+01   3.027166E+01   5.353649E+01   4.369691E+01   3.112467E+01   3.295058E+01   5.827323E+01   3.357930E+01   7.287352E+01   5.097091E+01   4.271851E+01   7.056680E+01   8.068389E+01   9.639335E+01   9.932422E+01   9.290148E+01   3.025262E+01   2.916112E+01   3.513924E+01   7.818941E+01   2.532154E+02   1.366195E+02   1.093611E+02   7.639641E+01   6.791254E+01   8.628486E+01   1.110067E+02   1.229161E+02   7.111603E+01   3.397387E+01   4.456391E+01   8.780373E+01   8.951034E+01   9.774879E+01   4.904204E+01   1.985607E+01   2.470010E+01   2.101291E+01   3.175725E+01   8.347249E+01   4.284059E+01   2.477593E+01   3.181101E+01   5.228248E+01   8.372650E+01   1.121416E+02   4.474118E+01   5.474793E+01   8.631136E+01   2.695051E+01   2.893357E+01   3.958820E+01   1.874570E+01   2.035982E+01   1.999274E+01   1.558641E+01   2.357634E+01   3.118317E+01   2.835949E+01   3.181504E+01   4.629724E+01   1.200111E+02   1.451202E+02   2.512099E+02   4.919176E+01   3.263360E+01   5.075003E+01   2.918157E+01   2.095087E+01   4.360854E+01   3.446410E+01   7.888810E+01   4.035831E+01   4.471635E+01   2.082551E+01   1.789184E+01   2.782130E+01   1.137933E+01   1.061809E+01   1.188775E+01   1.680730E+01   3.959422E+01   7.290977E+01   1.550584E+02   2.012776E+02   1.937111E+02   9.117467E+01   3.058176E+01   1.929160E+01   4.844355E+01   4.844355E+01   3.893507E+01   1.180880E+02   1.180880E+02   6.083516E+01   7.083621E+01   7.083621E+01   3.501831E+01   3.501831E+01   3.501831E+01   1.408617E+01   1.408617E+01   1.408617E+01   3.324668E+01   3.324668E+01   3.324668E+01   3.324668E+01   3.324668E+01   1.897207E+01   1.897207E+01   1.897207E+01   1.897207E+01   1.897207E+01   6.221745E+00   6.221745E+00   6.221745E+00   6.221745E+00   6.221745E+00   6.221745E+00   6.221745E+00   8.546485E+00   8.546485E+00   8.546485E+00   8.546485E+00   8.546485E+00   8.546485E+00   8.546485E+00   8.546485E+00   8.546485E+00   8.546485E+00   3.485381E+01   3.485381E+01   3.485381E+01   3.485381E+01   3.485381E+01   3.485381E+01   3.485381E+01   3.485381E+01   3.485381E+01   1.578616E+01   1.578616E+01   1.578616E+01   1.578616E+01   1.578616E+01   1.578616E+01   1.578616E+01   1.600525E+01   1.600525E+01   1.600525E+01   1.600525E+01   1.600525E+01   1.404160E+01   1.404160E+01   1.404160E+01   1.404160E+01   8.692022E+00   8.692022E+00   8.692022E+00   3.922579E+00   3.922579E+00   2.669484E+01   2.669484E+01   2.125514E+01   2.125514E+01   1.478154E+01   6.047270E+00   9.936517E+00   9.936517E+00   3.449879E+01   1.152084E+01   1.242737E+01   4.025169E+01   2.284863E+01   7.584835E+01   5.491763E+01   5.267627E+01   2.106672E+01   3.394987E+01   1.811694E+01   1.614610E+02   2.854761E+02   5.422846E+02   2.501804E+02   1.407948E+02   8.649514E+01   6.343017E+01   3.698471E+01   1.601969E+01   1.019762E+02   4.661731E+01   6.989196E+01   1.003683E+02   5.176391E+01   3.880042E+01   4.630205E+01   3.367781E+01   5.975787E+01   1.988305E+01   4.086491E+01   6.645231E+01   8.810777E+01   3.392309E+01   6.920347E+01   1.392013E+02   2.213231E+02   1.296360E+02   5.910543E+01
   2.505063E+01   4.316061E+01   7.918356E+01   3.565555E+01   2.973834E+01   1.899691E+01   3.854004E+01   2.708488E+01   8.029832E+01   9.310715E+01   6.979284E+01   3.661813E+01   4.288399E+01   5.946342E+01   1.277016E+02   7.471169E+01   3.355249E+01   2.598890E+01   3.051498E+01   6.496159E+01   1.724802E+02   2.568265E+02   1.320585E+02   7.148135E+01   3.116501E+01   1.354017E+02   1.218857E+02   1.177991E+02   6.368068E+01   6.326372E+01   6.977906E+01   5.028851E+01   3.849375E+01   4.647865E+01   3.834383E+01   3.452716E+01   3.051837E+01   9.837171E+01   4.008924E+01   1.195239E+02   5.508019E+01   1.854505E+01   5.697026E+01   4.369953E+01   1.353434E+02   1.301196E+02   5.785804E+01   5.246971E+01   1.410185E+02   2.317828E+01   1.919618E+01   3.932624E+01   3.503767E+01   3.383515E+01   2.407788E+01   1.868216E+01   2.102219E+01   3.258728E+01   2.069371E+01   5.088139E+01   3.010601E+01   2.027021E+02   5.960304E+01   1.061761E+02   1.590169E+01   2.271964E+01   2.908126E+01   5.294702E+01   3.176687E+01   1.833487E+01   1.698432E+01   4.081821E+01   6.228388E+01   2.548812E+01   3.193136E+01   9.708762E+00   2.422941E+01   9.042757E+00   1.673156E+01   1.800413E+01   2.410283E+01   1.941396E+01   3.310727E+01   6.819548E+01   1.534942E+02   1.333721E+02   9.673113E+01   4.422744E+01   7.302950E+01   5.148831E+01   5.148831E+01   2.497121E+01   5.189790E+01   5.189790E+01   6.384840E+01   1.078593E+02   1.078593E+02   4.999130E+01   4.999130E+01   4.999130E+01   2.101878E+01   2.101878E+01   2.101878E+01   2.773390E+01   2.773390E+01   2.773390E+01   2.773390E+01   2.773390E+01   2.767668E+01   2.767668E+01   2.767668E+01   2.767668E+01   2.767668E+01   6.559806E+00   6.559806E+00   6.559806E+00   6.559806E+00   6.559806E+00   6.559806E+00   6.559806E+00   5.333595E+01   5.333595E+01   5.333595E+01   5.333595E+01   5.333595E+01   5.333595E+01   5.333595E+01   5.333595E+01   5.333595E+01   5.333595E+01   5.053880E+01   5.053880E+01   5.053880E+01   5.053880E+01   5.053880E+01   5.053880E+01   5.053880E+01   5.053880E+01   5.053880E+01   3.765305E+01   3.765305E+01   3.765305E+01   3.765305E+01   3.765305E+01   3.765305E+01   3.765305E+01   4.536777E+01   4.536777E+01   4.536777E+01   4.536777E+01   4.536777E+01   1.161808E+01   1.161808E+01   1.161808E+01   1.161808E+01   7.355326E+00   7.355326E+00   7.355326E+00   4.258063E+00   4.258063E+00   1.613291E+01   1.613291E+01   1.545580E+01   1.545580E+01   1.243989E+01   9.770996E+00   1.940727E+01   1.940727E+01   3.196194E+01   1.219262E+01   6.453423E+00   2.670712E+01   1.498754E+01   4.374464E+01   5.750168E+01   5.038666E+01   2.678496E+01   2.069362E+01   3.909251E+01   1.114049E+02   1.234536E+02   5.199684E+02   1.280888E+02   1.036696E+02   4.096343E+01   4.047128E+01   2.504736E+01   2.254605E+01   1.126315E+02   1.435811E+02   6.276370E+01   8.127149E+01   5.054831E+01   7.698620E+01   2.506224E+01   2.409513E+01   2.961781E+01   3.475333E+01   3.098370E+01   4.116746E+01   8.011873E+01   1.694058E+01   1.420048E+02   6.654471E+01   2.384323E+02   6.808289E+01   2.637649E+01
   3.596950E+01   3.416708E+01   1.525142E+02   5.545187E+01   2.118350E+01   9.385021E+00   2.417834E+01   6.344235E+01   4.579602E+01   9.164158E+01   8.704655E+01   3.512565E+01   3.108072E+01   4.627055E+01   7.826582E+01   7.242493E+01   2.772830E+01   2.024669E+01   1.354798E+02   8.458787E+01   6.569107E+01   2.206629E+02   8.396461E+01   4.364141E+01   2.438331E+01   1.425389E+02   8.366835E+01   1.161221E+02   1.118236E+02   6.997576E+01   9.176134E+01   3.838628E+01   2.490043E+01   3.407182E+01   2.933285E+01   3.728365E+01   3.913719E+01   9.980380E+01   1.148490E+02   9.228158E+01   5.890623E+01   3.888639E+01   2.339649E+01   8.310281E+01   1.629503E+02   9.838591E+01   5.810918E+01   1.467203E+02   1.140204E+02   3.032253E+01   1.515158E+01   2.980149E+01   4.167210E+01   4.906867E+01   1.145488E+01   1.952722E+01   2.422298E+01   1.978269E+01   1.411618E+01   6.010517E+01   4.878172E+01   4.813966E+01   5.866677E+01   4.868223E+01   1.309649E+01   2.421177E+01   1.766221E+01   5.786981E+01   1.772708E+01   1.379946E+01   1.203462E+01   2.390355E+01   2.477451E+01   1.808595E+01   1.291401E+01   1.207938E+01   9.933681E+01   3.432972E+01   3.386196E+01   2.645483E+01   3.785435E+01   3.853030E+01   2.573714E+01   6.862125E+01   2.131838E+02   5.498265E+01   4.306696E+01   4.944724E+01   7.461853E+01   4.256312E+01   4.256312E+01   2.530671E+01   2.369764E+01   2.369764E+01   6.695810E+01   5.383009E+01   5.383009E+01   3.476471E+01   3.476471E+01   3.476471E+01   2.288394E+01   2.288394E+01   2.288394E+01   1.675392E+01   1.675392E+01   1.675392E+01   1.675392E+01   1.675392E+01   6.048343E+01   6.048343E+01   6.048343E+01   6.048343E+01   6.048343E+01   1.663910E+01   1.663910E+01   1.663910E+01   1.663910E+01   1.663910E+01   1.663910E+01   1.663910E+01   1.102128E+02   1.102128E+02   1.102128E+02   1.102128E+02   1.102128E+02   1.102128E+02   1.102128E+02   1.102128E+02   1.102128E+02   1.102128E+02   3.729116E+01   3.729116E+01   3.729116E+01   3.729116E+01   3.729116E+01   3.729116E+01   3.729116E+01   3.729116E+01   3.729116E+01   5.553147E+01   5.553147E+01   5.553147E+01   5.553147E+01   5.553147E+01   5.553147E+01   5.553147E+01   5.727399E+01   5.727399E+01   5.727399E+01   5.727399E+01   5.727399E+01   2.262694E+01   2.262694E+01   2.262694E+01   2.262694E+01   1.303882E+01   1.303882E+01   1.303882E+01   3.715376E+00   3.715376E+00   4.115989E+00   4.115989E+00   7.706017E+00   7.706017E+00   7.077736E+00   1.315549E+01   1.148688E+01   1.148688E+01   3.625638E+01   2.377004E+01   8.280744E+00   4.045163E+01   2.202441E+01   6.728574E+01   4.304762E+01   6.829803E+01   2.713587E+01   3.607118E+01   1.130892E+02   1.052437E+02   1.468112E+02   2.148199E+02   1.591991E+02   1.515932E+02   4.684074E+01   4.482922E+01   1.184268E+01   1.223572E+01   6.649399E+01   4.359642E+01   3.268094E+01   5.813186E+01   9.189502E+01   1.117023E+02   3.412552E+01   1.109117E+01   3.019450E+01   2.411902E+01   1.678066E+01   1.287852E+01   1.999859E+01   7.940356E+01   2.181536E+02   1.126304E+02   2.492550E+02   2.806289E+01   1.971298E+01
   3.699190E+01   6.197503E+01   7.479268E+01   1.561728E+01   2.335046E+01   1.690219E+01   2.048555E+01   7.131423E+01   2.442179E+01   2.476344E+01   7.052031E+01   3.177236E+01   4.292975E+01   2.421638E+01   4.275657E+01   4.118942E+01   5.474715E+01   3.463413E+01   9.171931E+01   1.584740E+02   6.004123E+01   1.285813E+02   7.324838E+01   7.066970E+01   5.868532E+01   1.184294E+02   9.472601E+01   1.649935E+02   9.347225E+01   5.672249E+01   6.846626E+01   4.431139E+01   4.778526E+01   3.744070E+01   2.336824E+01   5.575340E+01   2.951866E+01   1.061652E+02   1.002178E+02   6.329937E+01   2.622885E+01   2.709851E+01   1.620029E+01   9.895355E+01   2.747469E+02   1.299978E+02   1.810742E+02   1.788379E+02   1.064161E+02   6.057605E+01   2.234663E+01   3.910930E+01   6.966889E+01   7.202114E+01   4.624170E+01   2.032289E+01   4.039120E+01   1.962468E+01   1.864732E+01   2.190444E+01   2.584529E+01   2.941053E+01   5.839445E+01   5.857483E+01   3.487889E+01   4.691763E+01   2.729449E+01   5.737871E+01   1.810559E+01   3.830236E+01   7.427189E+00   1.567816E+01   1.714284E+01   1.470616E+01   1.862455E+01   2.220844E+01   7.747446E+01   1.661191E+01   3.327490E+01   3.568502E+01   6.604752E+01   4.732043E+01   2.936942E+01   1.398813E+02   1.187655E+02   5.079199E+01   4.743614E+01   5.664644E+01   5.740592E+01   4.677383E+01   4.677383E+01   1.860466E+01   3.022905E+01   3.022905E+01   3.855753E+01   5.257919E+01   5.257919E+01   3.854066E+01   3.854066E+01   3.854066E+01   2.531623E+01   2.531623E+01   2.531623E+01   6.680413E+00   6.680413E+00   6.680413E+00   6.680413E+00   6.680413E+00   3.813508E+01   3.813508E+01   3.813508E+01   3.813508E+01   3.813508E+01   2.974424E+01   2.974424E+01   2.974424E+01   2.974424E+01   2.974424E+01   2.974424E+01   2.974424E+01   1.692181E+02   1.692181E+02   1.692181E+02   1.692181E+02   1.692181E+02   1.692181E+02   1.692181E+02   1.692181E+02   1.692181E+02   1.692181E+02   3.724427E+01   3.724427E+01   3.724427E+01   3.724427E+01   3.724427E+01   3.724427E+01   3.724427E+01   3.724427E+01   3.724427E+01   1.381104E+02   1.381104E+02   1.381104E+02   1.381104E+02   1.381104E+02   1.381104E+02   1.381104E+02   5.232058E+01   5.232058E+01   5.232058E+01   5.232058E+01   5.232058E+01   2.747361E+01   2.747361E+01   2.747361E+01   2.747361E+01   1.058199E+01   1.058199E+01   1.058199E+01   4.837723E+00   4.837723E+00   4.114898E+00   4.114898E+00   7.956937E+00   7.956937E+00   8.687299E+00   1.328261E+01   2.632848E+01   2.632848E+01   2.691325E+01   2.952955E+01   1.065393E+01   4.249989E+01   2.642493E+01   7.328231E+01   3.405752E+01   4.345117E+01   3.634498E+01   4.027145E+01   4.988747E+01   5.932453E+01   1.017528E+02   2.438740E+02   7.935870E+01   7.593845E+01   5.901605E+01   3.640566E+01   2.641646E+01   1.944774E+01   3.111874E+01   1.750087E+01   1.561134E+01   6.162581E+01   5.144247E+01   1.456110E+02   1.105557E+02   1.716613E+01   3.097526E+01   3.959384E+01   1.165915E+01   1.733652E+01   2.020526E+01   3.197460E+01   1.228203E+02   1.938511E+02   3.079614E+02   5.916328E+01   1.847429E+01
   3.123904E+01   1.262624E+02   1.410962E+02   3.461454E+01   2.701332E+01   1.346103E+01   2.660447E+01   7.729018E+01   2.887384E+01   3.047737E+01   1.836761E+01   2.219211E+01   4.453255E+01   3.080367E+01   4.550394E+01   3.871431E+01   1.028211E+02   6.361499E+01   1.734556E+02   1.058937E+02   6.517205E+01   9.496888E+01   4.866108E+01   5.110913E+01   9.243172E+01   4.824964E+01   9.762328E+01   6.272299E+01   6.804221E+01   4.685801E+01   1.259066E+02   3.189242E+01   2.613292E+01   1.346923E+01   1.015610E+01   1.596925E+01   1.382862E+01   6.933462E+01   5.386803E+01   5.300464E+01   4.082730E+01   1.530752E+01   3.905371E+01   1.319800E+02   2.854292E+02   2.889863E+02   2.430019E+02   1.082275E+02   2.376788E+02   3.851344E+01   1.786578E+01   5.393970E+01   6.873643E+01   6.504720E+01   6.961357E+01   4.020124E+01   5.030585E+01   2.712302E+01   3.170589E+01   1.932567E+01   1.627794E+01   7.860745E+01   6.396987E+01   4.744864E+01   1.837790E+01   4.041949E+01   4.201449E+01   4.121082E+01   2.736609E+01   2.707091E+01   2.283249E+01   1.617966E+01   2.250855E+01   1.835472E+01   2.153332E+01   6.023515E+01   3.225054E+01   1.978773E+01   1.142044E+02   5.300021E+01   6.123513E+01   2.164690E+01   6.174919E+01   8.980940E+01   7.005804E+01   5.162493E+01   3.011856E+01   5.073660E+01   4.382091E+01   5.450184E+01   5.450184E+01   3.065293E+01   2.529843E+01   2.529843E+01   4.645172E+01   6.581647E+01   6.581647E+01   2.377141E+01   2.377141E+01   2.377141E+01   2.086955E+01   2.086955E+01   2.086955E+01   1.058565E+01   1.058565E+01   1.058565E+01   1.058565E+01   1.058565E+01   4.226142E+01   4.226142E+01   4.226142E+01   4.226142E+01   4.226142E+01   6.361914E+01   6.361914E+01   6.361914E+01   6.361914E+01   6.361914E+01   6.361914E+01   6.361914E+01   2.324643E+02   2.324643E+02   2.324643E+02   2.324643E+02   2.324643E+02   2.324643E+02   2.324643E+02   2.324643E+02   2.324643E+02   2.324643E+02   4.696717E+01   4.696717E+01   4.696717E+01   4.696717E+01   4.696717E+01   4.696717E+01   4.696717E+01   4.696717E+01   4.696717E+01   1.525920E+02   1.525920E+02   1.525920E+02   1.525920E+02   1.525920E+02   1.525920E+02   1.525920E+02   4.156217E+01   4.156217E+01   4.156217E+01   4.156217E+01   4.156217E+01   2.548359E+01   2.548359E+01   2.548359E+01   2.548359E+01   1.036834E+01   1.036834E+01   1.036834E+01   4.563854E+00   4.563854E+00   2.502704E+00   2.502704E+00   2.986792E+00   2.986792E+00   8.077237E+00   1.116910E+01   2.292152E+01   2.292152E+01   1.967706E+01   2.262110E+01   2.747658E+01   2.740129E+01   2.970117E+01   3.036472E+01   2.802826E+01   2.775525E+01   4.126710E+01   2.300614E+01   5.254138E+01   4.104985E+01   4.976640E+01   1.111643E+02   3.353747E+01   4.333374E+01   9.076189E+01   5.326765E+01   7.963441E+01   3.571504E+01   9.481610E+00   1.874343E+01   1.512732E+01   4.640778E+01   5.768747E+01   3.747491E+01   3.024424E+01   2.086937E+01   2.072019E+01   2.362184E+01   1.173628E+01   1.472092E+01   2.404980E+01   3.613002E+01   8.293622E+01   3.432839E+02   5.586964E+02   4.556754E+01   2.551567E+01
   5.368555E+01   8.915542E+01   1.422383E+02   4.390212E+01   2.262368E+01   1.603287E+01   3.038461E+01   4.154485E+01   1.679136E+01   3.575519E+01   2.069594E+01   5.225702E+01   3.010513E+01   3.663889E+01   5.812387E+01   6.997942E+01   3.716713E+02   9.587238E+01   1.779876E+02   1.665142E+02   7.159914E+01   8.443662E+01   7.598363E+01   4.517789E+01   8.223283E+01   2.780302E+01   5.405011E+01   6.372029E+01   5.416714E+01   7.878586E+01   1.224206E+02   2.865024E+01   1.630401E+01   7.455156E+00   1.027930E+01   1.006490E+01   1.795428E+01   2.006978E+01   3.330667E+01   1.126117E+02   3.915582E+01   2.379602E+01   4.742534E+01   6.959781E+01   1.808061E+02   5.132529E+02   1.982631E+02   8.172241E+01   6.875110E+01   3.124677E+01   3.044623E+01   7.013020E+01   1.088942E+02   7.472661E+01   7.985887E+01   6.500085E+01   4.047364E+01   2.586067E+01   2.476415E+01   1.899720E+01   1.035547E+01   8.924046E+01   4.898448E+01   6.445403E+01   3.437189E+01   4.075866E+01   5.624775E+01   2.632427E+01   6.521867E+01   2.872990E+01   5.559346E+01   5.026863E+01   2.198609E+01   4.071077E+01   2.836020E+01   3.093579E+01   1.410014E+01   2.741194E+01   3.531800E+01   5.478749E+01   3.404825E+01   3.104650E+01   1.031336E+02   1.065763E+02   4.931069E+01   5.657544E+01   4.302296E+01   4.427761E+01   2.051445E+01   5.439725E+01   5.439725E+01   4.381543E+01   6.760178E+01   6.760178E+01   5.782725E+01   8.130531E+01   8.130531E+01   2.789336E+01   2.789336E+01   2.789336E+01   3.428130E+01   3.428130E+01   3.428130E+01   8.058445E+00   8.058445E+00   8.058445E+00   8.058445E+00   8.058445E+00   4.483943E+01   4.483943E+01   4.483943E+01   4.483943E+01   4.483943E+01   3.172345E+01   3.172345E+01   3.172345E+01   3.172345E+01   3.172345E+01   3.172345E+01   3.172345E+01   6.955183E+01   6.955183E+01   6.955183E+01   6.955183E+01   6.955183E+01   6.955183E+01   6.955183E+01   6.955183E+01   6.955183E+01   6.955183E+01   2.636682E+01   2.636682E+01   2.636682E+01   2.636682E+01   2.636682E+01   2.636682E+01   2.636682E+01   2.636682E+01   2.636682E+01   1.740701E+02   1.740701E+02   1.740701E+02   1.740701E+02   1.740701E+02   1.740701E+02   1.740701E+02   4.229686E+01   4.229686E+01   4.229686E+01   4.229686E+01   4.229686E+01   4.185445E+01   4.185445E+01   4.185445E+01   4.185445E+01   1.133168E+01   1.133168E+01   1.133168E+01   3.168268E+00   3.168268E+00   4.675776E+00   4.675776E+00   3.087225E+00   3.087225E+00   1.383371E+01   1.180601E+01   2.214663E+01   2.214663E+01   3.595954E+01   1.989750E+01   2.097724E+01   3.228297E+01   3.678548E+01   3.698255E+01   8.072355E+01   3.083920E+01   1.557611E+01   1.457397E+01   3.897019E+01   2.543675E+01   3.438958E+01   3.768444E+01   3.199929E+01   6.074593E+01   2.133332E+01   3.050013E+01   1.032634E+02   3.976830E+01   9.140216E+00   9.258921E+00   2.200178E+01   3.337523E+01   7.115809E+01   2.779761E+01   1.516210E+01   1.387519E+01   2.491515E+01   1.793227E+01   2.037618E+01   5.955359E+00   2.907002E+01   6.011961E+01   2.448429E+02   3.676440E+02   2.013844E+02   6.069377E+01   3.808979E+01
   5.130486E+01   1.036465E+02   1.443806E+02   9.861531E+01   1.146821E+01   1.622398E+01   2.385305E+01   2.392939E+01   3.190348E+01   2.660476E+01   2.008257E+01   3.058997E+01   2.771200E+01   1.032061E+02   8.725092E+01   1.212677E+02   2.542321E+02   9.175219E+01   5.643055E+01   1.347743E+02   8.154314E+01   1.239426E+02   1.063000E+02   6.023369E+01   2.852595E+01   2.980692E+01   5.468417E+01   6.069733E+01   8.582922E+01   8.029977E+01   1.021628E+02   2.026340E+02   1.707959E+01   2.776819E+01   2.258205E+01   7.900515E+00   1.100821E+01   2.958577E+01   6.808805E+01   5.893613E+01   2.712170E+01   2.093469E+01   4.075412E+01   2.337929E+01   1.363714E+02   4.966660E+02   1.390503E+02   6.817100E+01   3.601442E+01   6.170199E+01   2.483059E+01   1.130977E+02   1.883776E+02   9.929625E+01   1.595600E+02   8.628098E+01   4.084119E+01   1.195746E+01   1.634788E+01   1.289664E+01   1.321709E+01   7.917442E+01   1.086456E+02   8.694485E+01   1.982012E+01   4.886933E+01   4.515869E+01   3.191641E+01   4.157419E+01   2.943993E+01   7.526801E+01   4.016228E+01   4.086555E+01   5.627004E+01   2.612059E+01   2.386083E+01   7.252314E+00   3.243192E+01   4.135764E+01   6.609554E+01   8.406258E+01   3.690807E+01   1.151561E+02   1.057583E+02   6.790845E+01   8.255152E+01   3.557579E+01   2.042224E+01   1.542026E+01   1.283276E+01   1.283276E+01   2.520885E+01   1.041190E+02   1.041190E+02   6.915764E+01   5.849541E+01   5.849541E+01   3.389962E+01   3.389962E+01   3.389962E+01   2.972049E+01   2.972049E+01   2.972049E+01   2.118752E+01   2.118752E+01   2.118752E+01   2.118752E+01   2.118752E+01   2.994489E+01   2.994489E+01   2.994489E+01   2.994489E+01   2.994489E+01   2.230355E+01   2.230355E+01   2.230355E+01   2.230355E+01   2.230355E+01   2.230355E+01   2.230355E+01   2.771310E+01   2.771310E+01   2.771310E+01   2.771310E+01   2.771310E+01   2.771310E+01   2.771310E+01   2.771310E+01   2.771310E+01   2.771310E+01   2.618865E+01   2.618865E+01   2.618865E+01   2.618865E+01   2.618865E+01   2.618865E+01   2.618865E+01   2.618865E+01   2.618865E+01   1.604120E+02   1.604120E+02   1.604120E+02   1.604120E+02   1.604120E+02   1.604120E+02   1.604120E+02   4.378832E+01   4.378832E+01   4.378832E+01   4.378832E+01   4.378832E+01   3.803065E+01   3.803065E+01   3.803065E+01   3.803065E+01   2.638732E+01   2.638732E+01   2.638732E+01   9.011709E+00   9.011709E+00   1.807500E+01   1.807500E+01   9.663501E+00   9.663501E+00   1.710291E+01   2.191915E+01   2.586859E+01   2.586859E+01   7.429327E+01   3.281509E+01   2.981089E+01   1.617652E+01   1.786515E+01   2.080412E+01   2.258080E+01   3.174415E+01   1.254792E+01   6.940629E+00   1.106824E+01   5.999133E+00   6.320045E+00   1.624592E+01   4.330527E+01   3.279174E+01   1.533036E+01   2.207621E+01   6.537562E+01   2.424809E+01   1.105042E+01   5.405459E+00   7.577896E+00   3.123103E+01   1.030719E+02   3.514646E+01   2.338017E+01   1.801471E+01   2.997729E+01   1.830737E+01   1.378810E+01   1.098365E+01   3.360841E+01   4.334834E+01   1.125903E+02   2.834595E+02   3.512856E+02   2.301774E+02   1.021307E+02
   3.061488E+01   6.579145E+01   1.088944E+02   6.255293E+01   1.628229E+01   3.194322E+01   5.529064E+01   4.015666E+01   2.732349E+01   1.664492E+01   2.067998E+01   1.737452E+01   1.979486E+01   5.424042E+01   8.899019E+01   7.956397E+01   1.559067E+02   1.850982E+02   6.883662E+01   1.154231E+02   9.447120E+01   1.664368E+02   6.348000E+01   5.155503E+01   4.126543E+01   3.920145E+01   1.726264E+01   4.992904E+01   1.262609E+02   6.431982E+01   5.871900E+01   5.111233E+01   9.845035E+00   3.799874E+01   8.693315E+00   1.111462E+01   1.391451E+01   1.755792E+01   7.497962E+01   7.445664E+01   2.561660E+01   3.476055E+01   4.269365E+01   3.005589E+01   7.188823E+01   2.695726E+02   1.803397E+02   6.321012E+01   9.758783E+01   4.467195E+01   2.366526E+01   1.106162E+02   2.985740E+02   1.362109E+02   1.626260E+02   9.398962E+01   1.732738E+01   2.023357E+01   2.345621E+01   1.753309E+01   1.636519E+01   8.606693E+01   4.285412E+01   8.156853E+01   3.200712E+01   5.436707E+01   6.214323E+01   4.144526E+01   5.762131E+01   4.278528E+01   2.770640E+01   2.852551E+01   5.526181E+01   7.244788E+01   6.138562E+01   3.365748E+01   1.799048E+01   3.290055E+01   8.619315E+01   1.255486E+02   8.060782E+01   9.050587E+01   4.979608E+01   4.310965E+01   3.882764E+01   4.938578E+01   1.819424E+01   1.592421E+01   1.078518E+01   9.295007E+00   9.295007E+00   6.600682E+00   4.470649E+01   4.470649E+01   8.366556E+01   1.040817E+02   1.040817E+02   3.444155E+01   3.444155E+01   3.444155E+01   4.701900E+01   4.701900E+01   4.701900E+01   3.303263E+01   3.303263E+01   3.303263E+01   3.303263E+01   3.303263E+01   5.049838E+01   5.049838E+01   5.049838E+01   5.049838E+01   5.049838E+01   3.038662E+01   3.038662E+01   3.038662E+01   3.038662E+01   3.038662E+01   3.038662E+01   3.038662E+01   1.937415E+01   1.937415E+01   1.937415E+01   1.937415E+01   1.937415E+01   1.937415E+01   1.937415E+01   1.937415E+01   1.937415E+01   1.937415E+01   2.723319E+01   2.723319E+01   2.723319E+01   2.723319E+01   2.723319E+01   2.723319E+01   2.723319E+01   2.723319E+01   2.723319E+01   9.794428E+01   9.794428E+01   9.794428E+01   9.794428E+01   9.794428E+01   9.794428E+01   9.794428E+01   3.701654E+01   3.701654E+01   3.701654E+01   3.701654E+01   3.701654E+01   5.671730E+01   5.671730E+01   5.671730E+01   5.671730E+01   3.045214E+01   3.045214E+01   3.045214E+01   1.868599E+01   1.868599E+01   7.988015E+00   7.988015E+00   1.387716E+01   1.387716E+01   1.488104E+01   2.087126E+01   2.834560E+01   2.834560E+01   5.479332E+01   4.114853E+01   4.360867E+01   2.885369E+01   1.331319E+01   1.081040E+01   1.342674E+01   1.121105E+01   6.803627E+00   1.350088E+00   6.477711E+00   4.310433E+00   5.086498E+00   1.300984E+01   1.661839E+01   2.518099E+01   1.632020E+01   2.500336E+01   5.345778E+01   2.948914E+01   1.755919E+01   5.557277E+00   6.179633E+00   2.633453E+01   4.511124E+01   1.852526E+01   4.792501E+01   2.101995E+01   1.879108E+01   9.133934E+00   5.677663E+00   9.394849E+00   3.231877E+01   5.792336E+01   1.787043E+02   2.923651E+02   9.150333E+01   6.410564E+01   9.401539E+01
   1.729397E+01   3.637903E+01   9.062470E+01   1.204366E+02   2.697192E+01   1.144208E+01   3.076165E+01   6.759422E+01   2.884896E+01   2.328502E+01   2.613824E+01   3.116233E+01   1.637425E+01   3.062882E+01   4.185340E+01   9.920171E+01   1.349433E+02   2.466071E+02   1.127085E+02   7.516174E+01   1.409835E+02   1.545299E+02   6.707390E+01   4.554060E+01   2.807659E+01   2.684839E+01   3.992851E+01   7.059615E+01   5.185920E+01   2.791868E+01   3.470720E+01   5.241692E+01   3.259719E+01   6.044230E+01   1.437439E+01   1.870966E+01   2.818591E+01   3.243995E+01   1.197175E+02   4.672201E+01   3.673323E+01   2.490640E+01   3.907573E+01   2.573745E+01   4.192324E+01   1.604321E+02   1.431239E+02   1.976598E+01   6.247656E+01   3.592400E+01   3.075274E+01   1.087390E+02   4.181369E+02   1.681949E+02   8.049244E+01   1.071545E+02   3.827134E+01   3.770636E+01   1.573450E+01   4.459434E+01   3.526215E+01   1.541145E+02   5.835860E+01   6.327077E+01   9.480480E+01   4.614518E+01   9.918868E+01   5.032403E+01   2.455710E+01   2.016401E+01   2.706210E+01   3.499152E+01   1.034549E+02   8.780875E+01   4.647874E+01   2.211701E+01   4.065257E+01   4.793626E+01   1.005757E+02   1.690293E+02   1.227366E+02   7.385644E+01   1.015807E+02   6.515434E+01   4.518255E+01   2.589501E+01   1.314132E+01   1.265881E+01   1.200430E+01   6.560013E+00   6.560013E+00   1.081145E+01   2.580668E+01   2.580668E+01   3.325639E+01   7.325454E+01   7.325454E+01   5.158762E+01   5.158762E+01   5.158762E+01   9.549938E+01   9.549938E+01   9.549938E+01   4.282632E+01   4.282632E+01   4.282632E+01   4.282632E+01   4.282632E+01   4.383033E+01   4.383033E+01   4.383033E+01   4.383033E+01   4.383033E+01   2.638938E+01   2.638938E+01   2.638938E+01   2.638938E+01   2.638938E+01   2.638938E+01   2.638938E+01   1.639027E+01   1.639027E+01   1.639027E+01   1.639027E+01   1.639027E+01   1.639027E+01   1.639027E+01   1.639027E+01   1.639027E+01   1.639027E+01   3.366037E+01   3.366037E+01   3.366037E+01   3.366037E+01   3.366037E+01   3.366037E+01   3.366037E+01   3.366037E+01   3.366037E+01   8.217734E+01   8.217734E+01   8.217734E+01   8.217734E+01   8.217734E+01   8.217734E+01   8.217734E+01   4.279446E+01   4.279446E+01   4.279446E+01   4.279446E+01   4.279446E+01   5.890844E+01   5.890844E+01   5.890844E+01   5.890844E+01   4.812191E+01   4.812191E+01   4.812191E+01   1.405943E+01   1.405943E+01   1.836840E+01   1.836840E+01   1.907103E+01   1.907103E+01   2.199379E+01   5.056036E+01   3.634377E+01   3.634377E+01   7.776587E+01   6.613035E+01   2.641066E+01   1.689699E+01   1.227403E+01   8.459134E+00   1.046963E+01   8.857258E+00   3.576960E+00   2.446323E+00   4.257407E+00   8.642340E+00   7.066870E+00   7.112202E+00   7.883428E+00   1.163882E+01   2.948996E+01   2.459464E+01   2.976789E+01   3.264723E+01   9.045022E+00   6.243062E+00   3.894981E+00   1.723584E+01   4.499209E+01   1.829371E+01   2.334523E+01   4.157118E+01   3.906546E+01   1.266078E+01   6.331579E+00   1.069416E+01   2.309978E+01   6.163414E+01   1.612906E+02   1.627630E+02   8.849872E+01   6.154070E+01   1.875832E+02