# LPF package for  MODFLOW-2005, generated by Flopy.
        53    -1E+30         0  
         1
         0
   0.000000E+00
         0
         0
INTERNAL               1 (207E15.6) -1 #hk layer 1                    
   3.973606E+01   1.680774E+01   2.430443E+01   2.620654E+01   5.021713E+01   3.956634E+01   2.262334E+01   3.714725E+01   6.125410E+01   4.607188E+01   3.180045E+01   3.887735E+01   6.718509E+01   1.512663E+02   1.074297E+02   5.608756E+01   2.264044E+01   3.909177E+01   4.287376E+01   2.035683E+01   6.440532E+01   4.524596E+01   3.350980E+01   4.729146E+01   6.865623E+01   1.022529E+02   7.343381E+01   5.299545E+01   5.490746E+01   1.937105E+02   2.233421E+02   1.127882E+02   1.469319E+02   6.163109E+01   1.279460E+02   5.430220E+01   6.404401E+01   7.592870E+01   1.606059E+02   5.732422E+01   5.954983E+01   7.067807E+01   1.255029E+02   1.088460E+02   1.585342E+02   8.123106E+01   9.040810E+01   2.410856E+02   5.751641E+01   4.761217E+01   2.703770E+01   2.062430E+01   1.364814E+01   1.403062E+01   6.412298E+01   6.183184E+01   2.415298E+02   2.583947E+02   1.049492E+02   5.991631E+01   1.210182E+02   6.077617E+01   2.622762E+02   6.004735E+02   9.484335E+01   7.591913E+01   1.316561E+02   3.123893E+02   4.915043E+02   2.515342E+02   3.582708E+02   8.377799E+02   3.199558E+02   2.545561E+02   1.262893E+02   4.885920E+01   1.584942E+02   1.090142E+02   8.401149E+01   1.702161E+02   2.381953E+02   3.901769E+02   1.355894E+02   4.412698E+01   4.112721E+01   3.521077E+01   3.165556E+01   3.414278E+01   5.680102E+01   8.870156E+01   8.870156E+01   1.603024E+02   9.056728E+01   9.056728E+01   7.506860E+01   8.578596E+01   8.578596E+01   6.972770E+01   6.972770E+01   6.972770E+01   1.215400E+02   1.215400E+02   1.215400E+02   1.341067E+02   1.341067E+02   1.341067E+02   1.341067E+02   1.341067E+02   1.588221E+02   1.588221E+02   1.588221E+02   1.588221E+02   1.588221E+02   1.668930E+02   1.668930E+02   1.668930E+02   1.668930E+02   1.668930E+02   1.668930E+02   1.668930E+02   1.278716E+02   1.278716E+02   1.278716E+02   1.278716E+02   1.278716E+02   1.278716E+02   1.278716E+02   1.278716E+02   1.278716E+02   1.278716E+02   2.382442E+02   2.382442E+02   2.382442E+02   2.382442E+02   2.382442E+02   2.382442E+02   2.382442E+02   2.382442E+02   2.382442E+02   8.520000E+01   8.520000E+01   8.520000E+01   8.520000E+01   8.520000E+01   8.520000E+01   8.520000E+01   6.809406E+01   6.809406E+01   6.809406E+01   6.809406E+01   6.809406E+01   5.206544E+01   5.206544E+01   5.206544E+01   5.206544E+01   3.692710E+01   3.692710E+01   3.692710E+01   2.657275E+01   2.657275E+01   5.261848E+01   5.261848E+01   4.950240E+01   4.950240E+01   2.242856E+02   1.841075E+02   5.822422E+01   5.822422E+01   1.720424E+02   3.428299E+02   6.218254E+01   1.990307E+02   9.227197E+01   2.482718E+02   8.491035E+01   6.450342E+01   1.533716E+02   4.556161E+01   4.188914E+01   6.087562E+01   1.213688E+02   1.748342E+02   8.376141E+01   1.541305E+02   7.534379E+01   1.039264E+02   5.161782E+01   8.083277E+01   5.480868E+01   6.087643E+01   1.235198E+02   7.803097E+01   1.894965E+02   3.789770E+02   8.583583E+01   1.896112E+02   3.890135E+02   7.325703E+01   5.506189E+01   1.736413E+02   7.073855E+01   3.406181E+01   7.532382E+01   2.327615E+02   2.070345E+02   1.133037E+02   7.523222E+01
   5.057696E+01   3.065565E+01   4.363520E+01   3.513758E+01   9.422142E+01   4.606310E+01   2.437090E+01   2.742674E+01   2.574812E+01   3.497071E+01   1.771574E+01   1.046367E+02   1.588651E+02   1.715915E+02   9.489345E+01   9.711654E+01   3.914379E+01   8.082858E+01   7.542018E+01   1.003802E+01   3.473876E+01   6.696819E+01   3.170901E+01   4.669887E+01   7.630807E+01   1.459024E+02   3.052254E+01   4.592741E+01   1.063739E+02   1.331179E+02   2.383137E+02   8.793906E+01   1.960761E+02   9.455465E+01   1.024320E+02   6.099919E+01   5.119168E+01   8.130780E+01   1.594647E+02   5.054514E+01   9.686874E+01   1.546983E+02   8.125254E+01   2.187289E+02   1.506768E+02   7.221331E+01   1.011188E+02   3.264864E+02   1.514891E+02   9.832751E+01   4.491239E+01   4.072552E+01   2.903740E+01   1.217313E+01   6.746880E+01   6.502084E+01   1.432698E+02   1.733890E+02   1.210933E+02   4.538905E+01   8.481762E+01   2.555690E+01   1.169083E+02   3.915676E+02   2.430246E+02   1.470866E+02   1.905485E+02   2.717398E+02   1.944108E+02   1.894171E+02   2.453149E+02   4.362018E+02   4.932516E+02   2.237437E+02   1.912870E+02   9.162195E+01   1.129200E+02   1.636225E+02   1.256942E+02   1.807116E+02   4.995328E+02   3.704630E+02   4.073965E+02   4.690885E+01   2.074825E+01   1.457343E+01   1.038431E+01   1.435800E+01   5.286460E+01   4.066014E+01   4.066014E+01   1.296364E+02   6.605970E+01   6.605970E+01   1.298488E+02   7.156007E+01   7.156007E+01   1.089673E+02   1.089673E+02   1.089673E+02   1.082514E+02   1.082514E+02   1.082514E+02   1.275081E+02   1.275081E+02   1.275081E+02   1.275081E+02   1.275081E+02   2.392619E+02   2.392619E+02   2.392619E+02   2.392619E+02   2.392619E+02   1.567707E+02   1.567707E+02   1.567707E+02   1.567707E+02   1.567707E+02   1.567707E+02   1.567707E+02   1.881069E+02   1.881069E+02   1.881069E+02   1.881069E+02   1.881069E+02   1.881069E+02   1.881069E+02   1.881069E+02   1.881069E+02   1.881069E+02   2.370470E+02   2.370470E+02   2.370470E+02   2.370470E+02   2.370470E+02   2.370470E+02   2.370470E+02   2.370470E+02   2.370470E+02   7.382714E+01   7.382714E+01   7.382714E+01   7.382714E+01   7.382714E+01   7.382714E+01   7.382714E+01   8.238431E+01   8.238431E+01   8.238431E+01   8.238431E+01   8.238431E+01   6.919591E+01   6.919591E+01   6.919591E+01   6.919591E+01   3.698518E+01   3.698518E+01   3.698518E+01   3.256728E+01   3.256728E+01   5.085384E+01   5.085384E+01   3.799675E+01   3.799675E+01   2.310024E+02   1.631870E+02   6.739542E+01   6.739542E+01   1.169866E+02   3.964044E+02   7.751093E+01   7.115393E+01   8.321869E+01   1.091713E+02   1.578304E+02   2.044490E+02   1.233408E+02   5.385931E+01   5.132272E+01   8.164227E+01   1.534199E+02   1.991532E+02   8.599371E+01   9.529205E+01   9.390716E+01   6.520647E+01   8.152404E+01   6.713448E+01   4.956857E+01   1.151412E+02   1.126907E+02   7.480232E+01   9.689880E+01   2.261234E+02   5.821144E+01   8.466615E+01   2.112181E+02   7.324183E+01   3.974101E+01   1.022569E+02   3.203213E+01   4.763320E+01   9.165470E+01   1.787247E+02   1.720836E+02   1.315522E+02   7.421809E+01
   4.790530E+01   3.742506E+01   3.359278E+01   3.565859E+01   8.602048E+01   3.142529E+01   2.088961E+01   2.284600E+01   2.241208E+01   3.685641E+01   3.010874E+01   2.741693E+02   1.020474E+02   1.134300E+02   7.957324E+01   9.224860E+01   2.826299E+01   4.959754E+01   4.396874E+01   3.603012E+01   2.793740E+01   1.010887E+02   4.915209E+01   6.146202E+01   6.327603E+01   1.900051E+02   7.073701E+01   5.845731E+01   3.919633E+01   6.321468E+01   1.374911E+02   1.732540E+02   2.887124E+02   1.355285E+02   1.096864E+02   3.275739E+01   5.785879E+01   1.211814E+02   1.303368E+02   7.457396E+01   4.534493E+01   1.491839E+02   6.493891E+01   1.441951E+02   2.715218E+02   2.069677E+02   1.666962E+02   1.026270E+02   2.425028E+02   1.597601E+02   1.067344E+02   5.982507E+01   3.553761E+01   2.272510E+01   6.831327E+01   8.539020E+01   7.869636E+01   1.363245E+02   1.291189E+02   2.888510E+01   2.008438E+01   3.711705E+01   8.458194E+01   2.125614E+02   2.540347E+02   1.481097E+02   1.504283E+02   2.707018E+02   1.112133E+02   1.136853E+02   1.518283E+02   1.790276E+02   3.695265E+02   3.354497E+02   7.841241E+01   1.417960E+02   1.099683E+02   4.836371E+01   6.424332E+01   1.732379E+02   3.855010E+02   6.951348E+02   4.194883E+02   3.715059E+01   1.225862E+01   9.711844E+00   2.513756E+01   9.364072E+00   3.640127E+01   4.641721E+01   4.641721E+01   8.510962E+01   8.661045E+01   8.661045E+01   1.017383E+02   7.161478E+01   7.161478E+01   2.881021E+02   2.881021E+02   2.881021E+02   1.009620E+02   1.009620E+02   1.009620E+02   3.832467E+02   3.832467E+02   3.832467E+02   3.832467E+02   3.832467E+02   7.450519E+02   7.450519E+02   7.450519E+02   7.450519E+02   7.450519E+02   3.056018E+02   3.056018E+02   3.056018E+02   3.056018E+02   3.056018E+02   3.056018E+02   3.056018E+02   3.327528E+02   3.327528E+02   3.327528E+02   3.327528E+02   3.327528E+02   3.327528E+02   3.327528E+02   3.327528E+02   3.327528E+02   3.327528E+02   1.641449E+02   1.641449E+02   1.641449E+02   1.641449E+02   1.641449E+02   1.641449E+02   1.641449E+02   1.641449E+02   1.641449E+02   1.812832E+02   1.812832E+02   1.812832E+02   1.812832E+02   1.812832E+02   1.812832E+02   1.812832E+02   7.889715E+01   7.889715E+01   7.889715E+01   7.889715E+01   7.889715E+01   4.913513E+01   4.913513E+01   4.913513E+01   4.913513E+01   9.122344E+01   9.122344E+01   9.122344E+01   2.326659E+01   2.326659E+01   2.938072E+01   2.938072E+01   3.782781E+01   3.782781E+01   9.213132E+01   1.211827E+02   4.827621E+01   4.827621E+01   1.275250E+02   2.170879E+02   8.095093E+01   6.093704E+01   1.057048E+02   1.058445E+02   1.654427E+02   6.067509E+01   9.495654E+01   5.516143E+01   4.853324E+01   6.098409E+01   1.338794E+02   1.009146E+02   2.056360E+02   2.235719E+02   8.323567E+01   5.601925E+01   7.739341E+01   5.080608E+01   1.201865E+02   3.178111E+02   3.106270E+02   1.651533E+02   4.854608E+01   1.310531E+02   1.680341E+01   2.653021E+01   7.309863E+01   8.207070E+01   3.803962E+01   8.370856E+01   5.852808E+01   2.769343E+01   1.093512E+02   1.457324E+02   1.726068E+02   1.170417E+02   6.106893E+01
   5.082861E+01   3.315080E+01   4.446318E+01   5.012310E+01   8.399391E+01   5.367968E+01   2.759245E+01   2.145285E+01   2.185609E+01   3.763070E+01   2.346205E+01   3.454734E+02   1.158948E+02   1.082303E+02   1.545102E+02   8.523273E+01   4.917200E+01   3.770753E+01   1.694571E+01   2.188768E+01   4.032321E+01   4.352592E+01   4.207356E+01   1.024106E+02   5.262072E+01   2.500501E+02   1.384959E+02   2.589074E+01   7.643869E+01   5.623670E+01   1.313985E+02   4.627100E+02   2.314066E+02   6.805899E+01   9.554517E+01   3.984714E+01   4.378553E+01   1.364141E+02   8.233458E+01   8.483466E+01   2.474189E+01   1.117682E+02   1.300499E+02   6.520927E+01   1.952174E+02   2.676276E+02   3.489330E+02   1.920409E+02   2.647993E+02   2.903524E+02   9.024658E+01   8.784787E+01   7.556567E+01   6.436086E+01   6.797385E+01   8.361723E+01   6.512068E+01   8.913822E+01   7.383485E+01   2.669360E+01   1.335670E+01   4.050155E+01   7.318835E+01   1.779509E+02   2.464176E+02   1.537111E+02   1.638174E+02   1.592477E+02   1.225439E+02   1.867203E+02   1.688882E+02   1.431424E+02   1.054859E+02   1.260505E+02   5.616621E+01   5.272177E+01   5.041875E+01   5.957493E+01   9.285284E+01   2.186917E+02   3.021497E+02   6.389776E+02   2.715517E+02   7.164456E+01   1.588463E+01   1.163544E+01   1.330245E+01   7.357694E+00   3.745184E+01   3.367573E+01   3.367573E+01   1.755495E+02   1.272412E+02   1.272412E+02   9.816105E+01   1.104542E+02   1.104542E+02   3.497069E+02   3.497069E+02   3.497069E+02   2.185441E+02   2.185441E+02   2.185441E+02   1.442546E+02   1.442546E+02   1.442546E+02   1.442546E+02   1.442546E+02   9.567978E+02   9.567978E+02   9.567978E+02   9.567978E+02   9.567978E+02   4.520234E+02   4.520234E+02   4.520234E+02   4.520234E+02   4.520234E+02   4.520234E+02   4.520234E+02   3.902446E+02   3.902446E+02   3.902446E+02   3.902446E+02   3.902446E+02   3.902446E+02   3.902446E+02   3.902446E+02   3.902446E+02   3.902446E+02   1.649520E+02   1.649520E+02   1.649520E+02   1.649520E+02   1.649520E+02   1.649520E+02   1.649520E+02   1.649520E+02   1.649520E+02   2.586240E+02   2.586240E+02   2.586240E+02   2.586240E+02   2.586240E+02   2.586240E+02   2.586240E+02   1.362045E+02   1.362045E+02   1.362045E+02   1.362045E+02   1.362045E+02   7.264703E+01   7.264703E+01   7.264703E+01   7.264703E+01   3.718930E+01   3.718930E+01   3.718930E+01   2.426913E+01   2.426913E+01   2.075480E+01   2.075480E+01   3.746137E+01   3.746137E+01   8.645738E+01   2.241595E+02   6.549998E+01   6.549998E+01   1.126837E+02   6.010909E+01   3.592690E+01   3.826805E+01   7.777628E+01   5.274605E+01   1.127394E+02   5.496468E+01   3.843957E+01   5.145768E+01   7.179031E+01   3.715620E+01   1.628087E+02   1.928351E+02   1.860623E+02   1.652649E+02   6.649422E+01   1.021166E+02   1.505973E+02   4.526138E+01   1.743305E+02   3.442650E+02   1.882026E+02   1.253315E+02   2.583029E+01   4.723770E+01   1.325976E+01   2.847216E+01   3.198502E+01   4.402316E+01   3.740843E+01   5.733636E+01   6.283417E+01   3.953603E+01   7.897218E+01   1.433410E+02   8.375192E+01   7.545454E+01   3.653741E+01
   4.089488E+01   2.195843E+01   5.141068E+01   8.758313E+01   2.096430E+02   5.225213E+01   4.954557E+01   4.569602E+01   1.958382E+01   2.967290E+01   4.859343E+01   9.044858E+01   1.318481E+02   1.333319E+02   2.648799E+02   6.654982E+01   7.284711E+01   6.760244E+01   1.887338E+01   3.697483E+01   3.668713E+01   4.011177E+01   7.977621E+01   1.163573E+02   2.246890E+02   3.128990E+02   1.223466E+02   4.067136E+01   7.227940E+01   4.076683E+01   1.987519E+02   2.211317E+02   1.924928E+02   1.067686E+02   1.046694E+02   7.633266E+01   6.718392E+01   8.614153E+01   5.378522E+01   3.922284E+01   4.113315E+01   9.227258E+01   3.267025E+02   7.237367E+01   1.423881E+02   2.793942E+02   3.027095E+02   4.291406E+02   3.662648E+02   2.241489E+02   1.961453E+02   1.044088E+02   1.035342E+02   5.166883E+01   5.440799E+01   9.436350E+01   1.381149E+02   5.787833E+01   9.088769E+01   2.856219E+01   9.309630E+00   2.695672E+01   5.575156E+01   2.482706E+02   2.338574E+02   1.119526E+02   1.720480E+02   1.246376E+02   1.114281E+02   1.192159E+02   7.446690E+01   1.782551E+02   1.179498E+02   2.529673E+02   3.857304E+01   3.083504E+01   1.661710E+01   2.683276E+01   1.407300E+02   1.089253E+02   3.600096E+02   2.962596E+02   1.428173E+02   5.764119E+01   2.363024E+01   2.370033E+01   1.962724E+01   7.632263E+00   1.960153E+01   4.558112E+01   4.558112E+01   1.148965E+02   1.375614E+02   1.375614E+02   1.238627E+02   7.005724E+01   7.005724E+01   1.839062E+02   1.839062E+02   1.839062E+02   9.507687E+01   9.507687E+01   9.507687E+01   1.148561E+02   1.148561E+02   1.148561E+02   1.148561E+02   1.148561E+02   4.394360E+02   4.394360E+02   4.394360E+02   4.394360E+02   4.394360E+02   4.223287E+02   4.223287E+02   4.223287E+02   4.223287E+02   4.223287E+02   4.223287E+02   4.223287E+02   2.152802E+02   2.152802E+02   2.152802E+02   2.152802E+02   2.152802E+02   2.152802E+02   2.152802E+02   2.152802E+02   2.152802E+02   2.152802E+02   1.433383E+02   1.433383E+02   1.433383E+02   1.433383E+02   1.433383E+02   1.433383E+02   1.433383E+02   1.433383E+02   1.433383E+02   2.412381E+02   2.412381E+02   2.412381E+02   2.412381E+02   2.412381E+02   2.412381E+02   2.412381E+02   1.488373E+02   1.488373E+02   1.488373E+02   1.488373E+02   1.488373E+02   1.158733E+02   1.158733E+02   1.158733E+02   1.158733E+02   5.881504E+01   5.881504E+01   5.881504E+01   2.272854E+01   2.272854E+01   2.430052E+01   2.430052E+01   3.962427E+01   3.962427E+01   1.095907E+02   3.702418E+02   9.874793E+01   9.874793E+01   3.184165E+01   2.821144E+01   4.356621E+01   4.226481E+01   8.736468E+01   9.398574E+01   5.303733E+01   2.785736E+01   3.635427E+01   1.104025E+02   4.165744E+01   7.327548E+01   1.819021E+02   2.196890E+02   4.062415E+02   1.272551E+02   8.279105E+01   1.577204E+02   1.329303E+02   1.002019E+02   3.243263E+02   4.008082E+02   2.043143E+02   8.485158E+01   2.586424E+01   1.334665E+01   1.471660E+01   1.293609E+01   3.556044E+01   2.678849E+01   4.002642E+01   6.455977E+01   3.811819E+01   5.798988E+01   4.339952E+01   1.501241E+02   3.954203E+01   4.360056E+01   3.330360E+01
   5.219415E+01   3.616878E+01   1.750667E+01   6.055188E+01   1.401575E+02   6.677890E+01   2.701649E+01   2.994192E+01   1.726343E+01   6.261580E+01   1.138149E+02   1.340123E+02   2.223285E+02   1.979710E+02   2.688746E+02   9.870581E+01   8.685342E+01   3.717763E+01   1.923576E+01   1.611504E+01   8.740196E+01   5.624093E+01   1.664506E+02   8.313533E+01   2.659109E+02   1.719145E+02   2.480850E+02   2.635920E+01   3.477036E+01   3.004616E+01   2.585202E+02   1.971597E+02   1.163198E+02   1.629944E+02   1.509967E+02   1.304095E+02   6.255906E+01   8.120095E+01   8.337094E+01   3.774008E+01   3.645934E+01   8.568036E+01   3.188473E+02   2.004238E+02   1.630595E+02   2.512495E+02   2.916453E+02   5.314285E+02   2.535191E+02   1.905020E+02   2.675902E+02   1.362075E+02   9.130610E+01   7.446371E+01   9.431702E+01   1.168666E+02   1.674751E+02   6.788466E+01   1.583693E+02   1.535621E+01   8.488287E+00   1.966428E+01   7.985999E+01   1.334908E+02   1.426255E+02   7.004032E+01   6.416588E+01   1.139563E+02   8.765389E+01   1.388611E+02   5.181776E+01   2.269512E+02   1.020461E+02   1.581498E+02   4.919445E+01   1.411480E+01   2.079733E+01   2.645322E+01   8.173843E+01   1.921967E+02   4.114894E+02   1.428289E+02   6.633864E+01   2.130486E+01   1.198623E+01   8.006747E+00   3.198111E+01   3.066185E+01   5.302937E+01   1.498157E+02   1.498157E+02   1.349335E+02   1.089633E+02   1.089633E+02   5.647886E+01   7.556411E+01   7.556411E+01   1.116758E+02   1.116758E+02   1.116758E+02   1.360362E+02   1.360362E+02   1.360362E+02   1.169999E+02   1.169999E+02   1.169999E+02   1.169999E+02   1.169999E+02   6.363215E+02   6.363215E+02   6.363215E+02   6.363215E+02   6.363215E+02   6.485081E+02   6.485081E+02   6.485081E+02   6.485081E+02   6.485081E+02   6.485081E+02   6.485081E+02   3.304693E+02   3.304693E+02   3.304693E+02   3.304693E+02   3.304693E+02   3.304693E+02   3.304693E+02   3.304693E+02   3.304693E+02   3.304693E+02   2.970085E+02   2.970085E+02   2.970085E+02   2.970085E+02   2.970085E+02   2.970085E+02   2.970085E+02   2.970085E+02   2.970085E+02   1.042068E+02   1.042068E+02   1.042068E+02   1.042068E+02   1.042068E+02   1.042068E+02   1.042068E+02   1.751164E+02   1.751164E+02   1.751164E+02   1.751164E+02   1.751164E+02   1.068152E+02   1.068152E+02   1.068152E+02   1.068152E+02   4.698817E+01   4.698817E+01   4.698817E+01   4.926270E+01   4.926270E+01   5.202924E+01   5.202924E+01   6.128683E+01   6.128683E+01   1.471917E+02   1.477108E+02   6.137066E+01   6.137066E+01   4.829693E+01   4.132791E+01   4.859547E+01   7.814512E+01   4.553389E+01   3.676678E+01   7.732848E+01   4.121467E+01   7.510982E+01   9.892238E+01   3.468509E+01   4.229882E+01   6.434007E+01   1.356110E+02   1.853767E+02   9.348787E+01   7.955693E+01   7.171770E+01   1.286175E+02   5.437439E+01   3.237103E+02   1.390617E+02   4.629917E+01   4.732042E+01   4.932048E+01   1.561522E+01   2.315764E+01   2.449768E+01   1.932175E+01   1.749858E+01   3.747317E+01   8.913007E+01   5.138841E+01   6.201528E+01   2.653643E+01   3.934415E+01   4.869099E+01   4.486891E+01   2.820648E+01
   5.090804E+01   2.066889E+01   1.390409E+01   3.256757E+01   1.629727E+02   4.362027E+01   3.773452E+01   5.028974E+01   1.329868E+01   5.405177E+01   6.753874E+01   6.359592E+01   1.129687E+02   1.563034E+02   2.563571E+02   1.567487E+02   7.153988E+01   3.913899E+01   2.729172E+01   1.879856E+01   1.106333E+02   3.074236E+02   1.557275E+02   1.066802E+02   1.324887E+02   2.549071E+02   2.262948E+02   6.649299E+01   4.814143E+01   2.487252E+01   1.069882E+02   1.870172E+02   1.017138E+02   8.451223E+01   1.109358E+02   1.073692E+02   7.888462E+01   7.258000E+01   5.325201E+01   5.762562E+01   1.058100E+02   1.981059E+02   1.985603E+02   1.553032E+02   1.276407E+02   1.762432E+02   7.031608E+01   2.732104E+02   2.495791E+02   1.924207E+02   1.361851E+02   9.029601E+01   9.006263E+01   1.335333E+02   9.260924E+01   1.173846E+02   1.545340E+02   1.252237E+02   5.949425E+01   3.955750E+01   2.010081E+01   1.221485E+01   3.359634E+01   1.261855E+02   1.032387E+02   1.071141E+02   4.568112E+01   5.017658E+01   1.365145E+02   2.138401E+02   1.106767E+02   2.935779E+02   6.462508E+01   1.309744E+02   3.247046E+01   2.014614E+01   2.022601E+01   4.616337E+01   3.750076E+01   1.899424E+02   3.653528E+02   7.568377E+01   5.273031E+01   2.494195E+01   1.451902E+01   2.783295E+01   2.195252E+01   3.777646E+01   6.107499E+01   1.919175E+02   1.919175E+02   1.797964E+02   1.506947E+02   1.506947E+02   5.253441E+01   9.391556E+01   9.391556E+01   9.258987E+01   9.258987E+01   9.258987E+01   1.647753E+02   1.647753E+02   1.647753E+02   1.195531E+02   1.195531E+02   1.195531E+02   1.195531E+02   1.195531E+02   5.321616E+02   5.321616E+02   5.321616E+02   5.321616E+02   5.321616E+02   3.742558E+02   3.742558E+02   3.742558E+02   3.742558E+02   3.742558E+02   3.742558E+02   3.742558E+02   1.352141E+02   1.352141E+02   1.352141E+02   1.352141E+02   1.352141E+02   1.352141E+02   1.352141E+02   1.352141E+02   1.352141E+02   1.352141E+02   2.185300E+02   2.185300E+02   2.185300E+02   2.185300E+02   2.185300E+02   2.185300E+02   2.185300E+02   2.185300E+02   2.185300E+02   2.628076E+01   2.628076E+01   2.628076E+01   2.628076E+01   2.628076E+01   2.628076E+01   2.628076E+01   4.495879E+01   4.495879E+01   4.495879E+01   4.495879E+01   4.495879E+01   7.311263E+01   7.311263E+01   7.311263E+01   7.311263E+01   6.542717E+01   6.542717E+01   6.542717E+01   1.092074E+02   1.092074E+02   1.128621E+02   1.128621E+02   1.256859E+02   1.256859E+02   2.022583E+02   6.779394E+01   5.803027E+01   5.803027E+01   2.626871E+01   5.506427E+01   3.387916E+01   6.729990E+01   4.212720E+01   3.949634E+01   6.843637E+01   4.093960E+01   6.017545E+01   1.097580E+02   1.214343E+02   6.081573E+01   8.122195E+01   1.306176E+02   1.392433E+02   4.503418E+01   5.344429E+01   3.010139E+01   1.236917E+02   1.074527E+02   1.735486E+02   1.359379E+02   9.639183E+01   3.865788E+01   2.575159E+01   4.615734E+01   3.772123E+01   3.737274E+01   2.359072E+01   2.577910E+01   4.401571E+01   4.710731E+01   4.702484E+01   8.132665E+01   4.947221E+01   3.674873E+01   4.542349E+01   5.470042E+01   1.324335E+01
   3.859211E+01   1.924928E+01   3.933842E+01   6.755048E+01   6.355358E+01   3.686247E+01   7.008262E+01   3.494258E+01   1.354932E+01   4.246528E+01   5.686141E+01   3.990621E+01   1.205399E+02   1.616258E+02   1.587298E+02   2.341814E+02   5.575040E+01   5.542230E+01   1.923060E+01   5.981541E+01   1.626485E+02   1.389757E+02   3.545501E+02   2.113997E+02   1.044448E+02   4.392491E+02   1.432640E+02   1.404431E+02   4.501406E+01   1.948517E+01   6.667116E+01   1.456744E+02   8.087917E+01   3.964908E+02   1.204297E+02   1.326414E+02   1.048090E+02   6.739334E+01   1.048270E+02   1.020245E+02   1.738950E+02   1.456637E+02   1.285538E+02   1.371796E+02   1.559727E+02   2.460983E+02   1.585816E+02   3.156869E+02   1.662751E+02   1.192904E+02   8.781482E+01   4.528441E+01   8.612501E+01   1.158679E+02   1.646986E+02   1.970459E+02   1.162822E+02   7.279169E+01   4.946080E+01   3.478925E+01   1.006095E+01   4.265604E+01   8.381705E+01   5.785179E+01   5.288304E+01   9.417680E+01   7.064507E+01   4.130300E+01   3.138894E+02   7.155714E+02   2.312920E+02   1.255619E+02   1.311498E+02   8.230017E+01   3.250874E+01   1.347887E+01   1.932182E+01   7.694887E+01   3.237081E+01   1.065364E+02   1.174978E+02   4.655756E+01   3.529169E+01   3.179963E+01   3.450925E+01   6.003648E+01   2.654222E+01   2.885783E+01   6.847959E+01   1.117399E+02   1.117399E+02   1.157763E+02   1.574652E+02   1.574652E+02   6.602686E+01   7.182152E+01   7.182152E+01   9.776165E+01   9.776165E+01   9.776165E+01   1.317753E+02   1.317753E+02   1.317753E+02   2.281673E+02   2.281673E+02   2.281673E+02   2.281673E+02   2.281673E+02   8.817661E+02   8.817661E+02   8.817661E+02   8.817661E+02   8.817661E+02   6.868519E+02   6.868519E+02   6.868519E+02   6.868519E+02   6.868519E+02   6.868519E+02   6.868519E+02   1.522576E+02   1.522576E+02   1.522576E+02   1.522576E+02   1.522576E+02   1.522576E+02   1.522576E+02   1.522576E+02   1.522576E+02   1.522576E+02   1.415427E+02   1.415427E+02   1.415427E+02   1.415427E+02   1.415427E+02   1.415427E+02   1.415427E+02   1.415427E+02   1.415427E+02   4.290003E+01   4.290003E+01   4.290003E+01   4.290003E+01   4.290003E+01   4.290003E+01   4.290003E+01   4.579869E+01   4.579869E+01   4.579869E+01   4.579869E+01   4.579869E+01   2.627632E+01   2.627632E+01   2.627632E+01   2.627632E+01   2.457244E+01   2.457244E+01   2.457244E+01   7.284526E+01   7.284526E+01   6.441128E+01   6.441128E+01   1.920296E+02   1.920296E+02   1.892525E+02   8.879642E+01   3.409362E+01   3.409362E+01   2.728296E+01   8.619371E+01   3.411467E+01   9.345041E+01   2.788424E+01   2.956407E+01   7.916167E+01   8.478275E+01   9.530172E+01   1.137743E+02   2.301029E+02   5.522975E+01   1.122601E+02   2.331191E+02   8.191471E+01   2.981031E+01   4.260091E+01   1.665679E+01   1.678233E+02   9.439603E+01   2.666789E+02   2.860843E+02   1.772669E+02   1.047667E+02   9.432612E+01   7.467986E+01   2.894109E+01   2.027753E+01   2.559212E+01   3.191997E+01   5.679427E+01   6.539432E+01   2.070392E+02   9.825187E+01   6.860862E+01   1.835482E+01   7.577089E+01   6.514381E+01   2.067791E+01
   3.510331E+01   3.027995E+01   1.787511E+01   7.184076E+01   5.337764E+01   4.637126E+01   6.534007E+01   2.928670E+01   1.951286E+01   2.632011E+01   5.113936E+01   1.554793E+01   4.305950E+01   3.749557E+01   1.746975E+02   1.415700E+02   4.744239E+01   6.256569E+01   1.245340E+01   2.716432E+01   3.567497E+01   1.751037E+02   2.722852E+02   3.194726E+02   2.680017E+02   4.986678E+02   1.277954E+02   1.072166E+02   4.991342E+01   3.708766E+01   4.026183E+01   1.760986E+02   1.328423E+02   3.596663E+02   1.361605E+02   4.183624E+01   3.112761E+01   7.449826E+01   1.068886E+02   1.331423E+02   1.424585E+02   6.487887E+01   8.066141E+01   1.574118E+02   1.683074E+02   2.103545E+02   2.584017E+02   7.930351E+01   5.417873E+01   4.687366E+01   5.805179E+01   3.706497E+01   8.841235E+01   1.357251E+02   2.801970E+02   1.816068E+02   2.743342E+02   1.068039E+02   5.985700E+01   2.022750E+01   1.811832E+01   6.160080E+01   7.068616E+01   5.894906E+01   5.816804E+01   9.771261E+01   6.842952E+01   1.101803E+02   1.664176E+02   8.397005E+02   4.011076E+02   2.339692E+02   1.070255E+02   6.972403E+01   4.137487E+01   2.152749E+01   7.120815E+01   9.562489E+01   5.124817E+01   1.423810E+02   5.888977E+01   3.075088E+01   5.328254E+01   1.820959E+01   4.372551E+01   5.972127E+01   2.973723E+01   3.307205E+01   3.354135E+01   6.202459E+01   6.202459E+01   9.063223E+01   1.457677E+02   1.457677E+02   1.125174E+02   4.540174E+01   4.540174E+01   8.930221E+01   8.930221E+01   8.930221E+01   1.161317E+02   1.161317E+02   1.161317E+02   1.163836E+02   1.163836E+02   1.163836E+02   1.163836E+02   1.163836E+02   4.131345E+02   4.131345E+02   4.131345E+02   4.131345E+02   4.131345E+02   8.957131E+02   8.957131E+02   8.957131E+02   8.957131E+02   8.957131E+02   8.957131E+02   8.957131E+02   3.276521E+02   3.276521E+02   3.276521E+02   3.276521E+02   3.276521E+02   3.276521E+02   3.276521E+02   3.276521E+02   3.276521E+02   3.276521E+02   2.050212E+02   2.050212E+02   2.050212E+02   2.050212E+02   2.050212E+02   2.050212E+02   2.050212E+02   2.050212E+02   2.050212E+02   4.656339E+01   4.656339E+01   4.656339E+01   4.656339E+01   4.656339E+01   4.656339E+01   4.656339E+01   2.722003E+01   2.722003E+01   2.722003E+01   2.722003E+01   2.722003E+01   4.454414E+01   4.454414E+01   4.454414E+01   4.454414E+01   6.880256E+01   6.880256E+01   6.880256E+01   8.959579E+01   8.959579E+01   1.729389E+02   1.729389E+02   3.109887E+02   3.109887E+02   1.465474E+02   9.116422E+01   4.960265E+01   4.960265E+01   1.223828E+02   2.896746E+01   2.667801E+01   6.163047E+01   2.599951E+01   3.146304E+01   8.206480E+01   4.562857E+01   3.772144E+01   7.581219E+01   2.522923E+02   6.441741E+01   1.874495E+02   1.068124E+02   5.261621E+01   4.794221E+01   4.680722E+01   2.943851E+01   6.469217E+01   9.370977E+01   3.744167E+02   3.301588E+02   3.385639E+02   8.374770E+01   1.439833E+02   8.759777E+01   8.110223E+01   2.066677E+01   7.434479E+01   3.651525E+01   4.710609E+01   5.224178E+01   1.418148E+02   7.846559E+01   9.500460E+01   7.451405E+01   5.724365E+01   2.255956E+01   2.874865E+01