# LPF package for  MODFLOW-2005, generated by Flopy.
        53    -1E+30         0  
         1
         0
   0.000000E+00
         0
         0
INTERNAL               1 (207E15.6) -1 #hk layer 1                    
   8.272110E+01   2.603052E+01   6.499696E+01   8.981469E+01   5.272499E+01   4.822489E+01   4.965821E+01   3.106562E+02   7.453009E+01   1.311250E+02   3.034708E+02   1.713011E+02   5.332368E+01   3.764114E+01   4.163717E+01   3.351120E+01   2.610533E+01   8.578798E+01   9.187476E+01   1.937949E+02   5.852741E+01   1.175927E+02   1.094268E+02   7.355367E+01   2.366822E+01   3.479304E+01   1.493949E+01   4.160564E+01   9.823863E+00   2.957568E+01   6.889285E+01   5.573638E+01   3.538158E+01   4.993817E+01   7.436125E+01   8.388225E+01   2.901573E+01   3.543396E+01   4.754543E+01   2.035255E+01   4.725148E+01   4.495866E+01   1.239606E+01   1.746035E+01   3.061816E+01   2.144811E+01   1.164535E+01   8.292888E+00   8.518592E+00   2.125445E+01   3.008339E+01   7.659206E+01   1.414373E+02   1.007917E+02   8.200077E+01   4.551665E+01   4.038469E+01   6.840417E+01   1.385076E+02   1.511914E+02   4.295326E+01   2.798133E+01   1.436806E+01   2.407645E+01   1.563122E+01   4.696464E+01   3.849035E+01   1.663963E+01   2.764682E+01   1.386192E+01   6.706669E+00   3.412614E+01   5.677025E+01   9.648946E+01   2.909411E+01   1.691550E+01   2.205417E+01   1.432797E+01   3.071677E+01   1.686490E+01   2.942824E+01   2.995698E+01   6.741393E+01   6.177821E+01   1.886007E+01   4.050193E+01   5.473441E+01   6.286858E+01   1.363571E+01   6.117242E+00   6.117242E+00   5.452453E+00   1.422927E+01   1.422927E+01   3.735392E+01   8.660407E+01   8.660407E+01   1.153838E+02   1.153838E+02   1.153838E+02   6.145890E+01   6.145890E+01   6.145890E+01   3.951702E+01   3.951702E+01   3.951702E+01   3.951702E+01   3.951702E+01   5.080200E+01   5.080200E+01   5.080200E+01   5.080200E+01   5.080200E+01   9.704566E+01   9.704566E+01   9.704566E+01   9.704566E+01   9.704566E+01   9.704566E+01   9.704566E+01   8.531609E+01   8.531609E+01   8.531609E+01   8.531609E+01   8.531609E+01   8.531609E+01   8.531609E+01   8.531609E+01   8.531609E+01   8.531609E+01   1.901498E+02   1.901498E+02   1.901498E+02   1.901498E+02   1.901498E+02   1.901498E+02   1.901498E+02   1.901498E+02   1.901498E+02   1.761088E+02   1.761088E+02   1.761088E+02   1.761088E+02   1.761088E+02   1.761088E+02   1.761088E+02   4.463762E+01   4.463762E+01   4.463762E+01   4.463762E+01   4.463762E+01   3.673671E+01   3.673671E+01   3.673671E+01   3.673671E+01   5.815484E+01   5.815484E+01   5.815484E+01   5.420577E+01   5.420577E+01   2.092477E+01   2.092477E+01   2.883165E+01   2.883165E+01   6.286502E+01   2.334001E+01   5.230882E+01   5.230882E+01   1.027708E+02   6.257300E+01   3.522719E+01   6.122003E+01   3.367647E+01   3.461298E+01   3.439598E+01   2.263491E+01   1.088089E+01   8.579235E+00   9.066103E+00   8.850498E+00   2.280519E+01   1.237539E+01   4.899985E+00   8.294679E+00   1.488389E+01   5.248723E+00   1.378567E+01   6.017998E+00   2.497553E+01   6.005226E+01   1.584713E+02   2.037292E+02   9.570405E+01   2.031628E+02   1.114286E+02   1.346155E+02   1.027494E+02   7.311107E+01   4.666161E+01   3.988605E+01   7.215425E+01   2.774233E+01   1.989100E+01   3.101338E+01   4.287404E+01   1.427499E+02   1.585679E+02
   8.769250E+01   3.981483E+01   3.044355E+01   9.321539E+01   1.135782E+02   5.386828E+01   9.371766E+01   1.787643E+02   8.300010E+01   2.786489E+02   1.883743E+02   1.755558E+02   1.147326E+02   5.918024E+01   4.654408E+01   1.236848E+01   1.472512E+01   4.594327E+01   8.927760E+01   1.266896E+02   1.985785E+02   1.646886E+02   6.960849E+01   6.148636E+01   1.972154E+01   1.812299E+01   1.647688E+01   4.902552E+01   1.362392E+01   4.819559E+01   5.489058E+01   5.407742E+01   9.263242E+01   4.686767E+01   1.461615E+02   3.988029E+01   1.839326E+01   5.472647E+01   6.451955E+01   2.773287E+01   2.954735E+01   2.847421E+01   1.910462E+01   1.509084E+01   2.507465E+01   2.077291E+01   2.281772E+01   2.080360E+01   7.958444E+00   3.833144E+01   5.730505E+01   1.930004E+02   1.653863E+02   1.454339E+02   1.191432E+02   5.218468E+01   9.965428E+01   1.095927E+02   9.308343E+01   1.138979E+02   2.670112E+01   4.259763E+01   2.092158E+01   1.421294E+01   3.944488E+01   2.860619E+01   3.664828E+01   4.041626E+01   3.899773E+01   2.546385E+01   1.836326E+01   2.209276E+01   8.105128E+01   4.177702E+01   2.829421E+01   3.281234E+01   1.899619E+01   2.420620E+01   3.175751E+01   2.300800E+01   3.985720E+01   2.819352E+01   6.487057E+01   5.437385E+01   1.168045E+01   5.598703E+01   7.378027E+01   7.126479E+01   3.453818E+01   2.209499E+01   2.209499E+01   1.340760E+01   2.456181E+01   2.456181E+01   3.381609E+01   9.876742E+01   9.876742E+01   1.601135E+02   1.601135E+02   1.601135E+02   4.058645E+01   4.058645E+01   4.058645E+01   2.490187E+01   2.490187E+01   2.490187E+01   2.490187E+01   2.490187E+01   1.431626E+01   1.431626E+01   1.431626E+01   1.431626E+01   1.431626E+01   1.259473E+02   1.259473E+02   1.259473E+02   1.259473E+02   1.259473E+02   1.259473E+02   1.259473E+02   1.057087E+02   1.057087E+02   1.057087E+02   1.057087E+02   1.057087E+02   1.057087E+02   1.057087E+02   1.057087E+02   1.057087E+02   1.057087E+02   2.551295E+02   2.551295E+02   2.551295E+02   2.551295E+02   2.551295E+02   2.551295E+02   2.551295E+02   2.551295E+02   2.551295E+02   1.879042E+02   1.879042E+02   1.879042E+02   1.879042E+02   1.879042E+02   1.879042E+02   1.879042E+02   3.315736E+01   3.315736E+01   3.315736E+01   3.315736E+01   3.315736E+01   3.306839E+01   3.306839E+01   3.306839E+01   3.306839E+01   7.356228E+01   7.356228E+01   7.356228E+01   6.606989E+01   6.606989E+01   4.045833E+01   4.045833E+01   5.300642E+01   5.300642E+01   4.080236E+01   2.061633E+01   4.728184E+01   4.728184E+01   1.056633E+02   4.480911E+01   2.024172E+01   4.232491E+01   4.133223E+01   6.827097E+01   5.081611E+01   2.117652E+01   1.710009E+01   8.814022E+00   1.821377E+01   1.363873E+01   2.474849E+01   3.956960E+01   1.812199E+01   6.044662E+00   1.802029E+01   1.012251E+01   1.560618E+01   1.214831E+01   2.893007E+01   8.845549E+01   1.484634E+02   2.202314E+02   7.796730E+01   7.116592E+01   6.269349E+01   9.499922E+01   1.165088E+02   2.547715E+01   7.928155E+01   1.088802E+02   6.773274E+01   2.949993E+01   7.658330E+00   2.838710E+01   5.008841E+01   2.356545E+02   1.927727E+02
   1.150392E+02   3.088188E+01   3.209615E+01   1.473795E+02   1.281079E+02   1.072882E+02   7.840143E+01   2.012167E+02   1.378359E+02   2.635685E+02   1.444182E+02   2.811747E+02   8.572828E+01   4.243767E+01   3.959133E+01   1.349582E+01   1.892469E+01   2.541141E+01   1.096440E+02   1.166780E+02   1.807290E+02   1.041672E+02   5.558435E+01   8.242397E+01   2.531612E+01   1.279163E+01   2.188991E+01   4.349318E+01   1.727637E+01   2.677872E+01   4.775317E+01   2.987619E+01   6.151191E+01   7.812196E+01   1.275445E+02   4.612639E+01   4.508334E+01   6.535818E+01   6.998311E+01   7.865037E+01   1.008702E+01   1.853123E+01   2.984824E+01   1.280985E+01   2.912028E+01   3.876654E+01   3.873511E+01   2.473445E+01   1.990661E+01   1.045958E+02   7.809753E+01   1.041128E+02   1.638337E+02   5.264714E+01   6.856493E+01   5.751908E+01   9.444614E+01   6.086252E+01   1.147784E+02   7.282315E+01   2.244885E+01   4.101795E+01   3.242200E+01   2.188665E+01   5.315201E+01   5.238134E+01   3.068981E+01   4.397642E+01   4.551591E+01   3.339506E+01   2.962716E+01   5.191874E+01   1.157951E+02   5.640517E+01   3.600414E+01   2.677969E+01   4.360800E+01   5.235881E+01   2.214155E+01   3.025518E+01   5.261543E+01   3.120214E+01   5.437116E+01   5.323277E+01   5.539579E+01   1.004558E+02   1.131005E+02   9.741384E+01   1.100924E+02   7.339309E+01   7.339309E+01   3.590487E+01   2.495029E+01   2.495029E+01   1.889878E+01   4.199183E+01   4.199183E+01   9.683974E+01   9.683974E+01   9.683974E+01   5.878417E+01   5.878417E+01   5.878417E+01   5.360381E+01   5.360381E+01   5.360381E+01   5.360381E+01   5.360381E+01   5.058766E+01   5.058766E+01   5.058766E+01   5.058766E+01   5.058766E+01   1.302494E+02   1.302494E+02   1.302494E+02   1.302494E+02   1.302494E+02   1.302494E+02   1.302494E+02   1.071953E+02   1.071953E+02   1.071953E+02   1.071953E+02   1.071953E+02   1.071953E+02   1.071953E+02   1.071953E+02   1.071953E+02   1.071953E+02   1.279331E+02   1.279331E+02   1.279331E+02   1.279331E+02   1.279331E+02   1.279331E+02   1.279331E+02   1.279331E+02   1.279331E+02   1.659138E+02   1.659138E+02   1.659138E+02   1.659138E+02   1.659138E+02   1.659138E+02   1.659138E+02   4.906724E+01   4.906724E+01   4.906724E+01   4.906724E+01   4.906724E+01   3.678335E+01   3.678335E+01   3.678335E+01   3.678335E+01   5.144701E+01   5.144701E+01   5.144701E+01   3.905045E+01   3.905045E+01   3.914262E+01   3.914262E+01   3.647836E+01   3.647836E+01   8.637399E+01   2.313600E+01   7.961663E+01   7.961663E+01   8.831166E+01   3.064326E+01   1.564189E+01   3.267108E+01   8.910128E+01   1.330177E+02   8.501074E+01   1.550422E+01   7.475595E+00   7.233579E+00   1.063324E+01   1.124798E+01   5.336790E+01   1.047594E+02   6.259029E+01   6.215068E+00   8.438138E+00   9.311874E+00   1.992142E+01   1.032772E+01   2.821813E+01   3.615118E+01   7.052916E+01   1.695235E+02   5.887565E+01   4.810051E+01   8.862075E+01   8.655462E+01   4.974677E+01   1.945359E+01   3.078116E+02   1.165458E+02   1.638068E+02   4.680332E+01   9.287238E+00   3.670288E+01   1.128121E+02   2.492000E+02   2.911284E+02
   1.600179E+02   7.468304E+01   4.059667E+01   5.247093E+01   1.029825E+02   5.285875E+01   1.036988E+02   2.416778E+02   1.831295E+02   1.370618E+02   1.051064E+02   7.750768E+01   1.153981E+02   3.992920E+01   4.352134E+01   2.268310E+01   3.151982E+01   1.855248E+01   9.411559E+01   5.043584E+01   6.723838E+01   8.336610E+01   2.831058E+01   5.044020E+01   2.922480E+01   2.986813E+01   5.024803E+01   3.229360E+01   2.734937E+01   3.543256E+01   2.280259E+01   2.499055E+01   3.151248E+01   1.894479E+02   1.012946E+02   6.533974E+01   5.314408E+01   1.146987E+02   6.667244E+01   1.375261E+01   6.234214E+00   2.224970E+01   4.040324E+01   1.228260E+01   3.906476E+01   1.023852E+02   5.385447E+01   4.203669E+01   3.654408E+01   1.913767E+02   1.196656E+02   3.472971E+02   1.384470E+02   3.499286E+01   3.960974E+01   6.588371E+01   2.361689E+01   7.180106E+01   1.450320E+02   4.005721E+01   3.284528E+01   1.956303E+01   1.888628E+01   1.499777E+01   3.086206E+01   6.698439E+01   5.469526E+01   5.993388E+01   4.964814E+01   3.635216E+01   1.332402E+01   2.240236E+01   4.499542E+01   3.722161E+01   4.371344E+01   3.874271E+01   4.964751E+01   2.389824E+01   2.212745E+01   6.021283E+01   4.250189E+01   1.825350E+01   5.766892E+01   3.290914E+01   8.017352E+01   9.968244E+01   1.041902E+02   1.527575E+02   7.400712E+01   4.457083E+01   4.457083E+01   3.182319E+01   1.832094E+01   1.832094E+01   1.304655E+01   1.148176E+01   1.148176E+01   5.236485E+01   5.236485E+01   5.236485E+01   5.715722E+01   5.715722E+01   5.715722E+01   5.108991E+01   5.108991E+01   5.108991E+01   5.108991E+01   5.108991E+01   1.018334E+02   1.018334E+02   1.018334E+02   1.018334E+02   1.018334E+02   1.781651E+02   1.781651E+02   1.781651E+02   1.781651E+02   1.781651E+02   1.781651E+02   1.781651E+02   1.400670E+02   1.400670E+02   1.400670E+02   1.400670E+02   1.400670E+02   1.400670E+02   1.400670E+02   1.400670E+02   1.400670E+02   1.400670E+02   9.321497E+01   9.321497E+01   9.321497E+01   9.321497E+01   9.321497E+01   9.321497E+01   9.321497E+01   9.321497E+01   9.321497E+01   8.763531E+01   8.763531E+01   8.763531E+01   8.763531E+01   8.763531E+01   8.763531E+01   8.763531E+01   1.263311E+02   1.263311E+02   1.263311E+02   1.263311E+02   1.263311E+02   6.805688E+01   6.805688E+01   6.805688E+01   6.805688E+01   5.176225E+01   5.176225E+01   5.176225E+01   3.531794E+01   3.531794E+01   2.749016E+01   2.749016E+01   3.647337E+01   3.647337E+01   6.973614E+01   4.180200E+01   2.435314E+01   2.435314E+01   2.345293E+01   2.215188E+01   1.714919E+01   2.210704E+01   3.741388E+01   9.207881E+01   4.731270E+01   2.185183E+01   9.928478E+00   2.690228E+01   1.150616E+01   1.790320E+01   1.959209E+01   3.831477E+01   3.203354E+01   8.735636E+00   2.232140E+01   2.136225E+01   2.121788E+01   9.337328E+00   4.579528E+01   4.741324E+01   5.410156E+01   1.695646E+02   1.371483E+02   2.058590E+01   4.158325E+01   1.047087E+02   5.345965E+01   2.062754E+01   1.988232E+02   9.956714E+01   8.783000E+01   9.471590E+01   2.283660E+01   5.702989E+01   1.073817E+02   1.615724E+02   1.720102E+02
   2.547616E+02   1.348792E+02   5.124758E+01   1.218901E+02   7.401875E+01   1.770507E+01   3.588872E+01   1.400592E+02   1.590965E+02   4.388937E+01   1.699367E+02   1.123657E+02   5.133569E+01   4.170481E+01   5.120033E+01   1.812994E+01   2.313376E+01   3.421489E+01   5.500534E+01   4.998752E+01   7.249490E+01   7.560490E+01   1.718271E+01   4.692676E+01   2.615568E+01   1.274878E+02   6.155847E+01   8.282067E+01   5.753311E+01   4.296812E+01   2.089069E+01   2.951570E+01   7.308306E+01   1.159539E+02   3.585863E+01   1.049304E+02   4.254506E+01   7.720244E+01   2.751610E+01   2.216517E+01   6.967451E+00   1.726732E+01   2.525813E+01   1.666458E+01   6.475489E+01   5.826415E+01   8.105120E+01   1.161125E+02   4.660545E+01   1.313891E+02   4.291367E+02   4.746629E+02   2.337016E+02   2.688701E+01   3.150441E+01   2.212068E+01   1.071378E+01   1.252183E+02   7.567812E+01   7.483671E+01   1.998488E+01   1.807253E+01   1.029707E+01   1.022428E+01   3.514018E+01   8.661584E+01   7.565522E+01   6.633958E+01   1.132659E+02   4.612461E+01   1.440374E+01   2.202773E+01   3.051099E+01   2.427952E+01   4.685818E+01   2.716276E+01   3.803322E+01   3.365111E+01   2.580003E+01   4.404745E+01   4.202180E+01   1.607838E+01   5.267627E+01   5.560095E+01   8.486839E+01   1.490295E+02   9.961114E+01   2.039654E+02   4.081734E+01   1.931164E+01   1.931164E+01   2.768089E+01   9.346240E+00   9.346240E+00   1.828021E+01   2.104018E+01   2.104018E+01   4.790343E+01   4.790343E+01   4.790343E+01   1.268051E+02   1.268051E+02   1.268051E+02   1.566617E+02   1.566617E+02   1.566617E+02   1.566617E+02   1.566617E+02   9.873799E+01   9.873799E+01   9.873799E+01   9.873799E+01   9.873799E+01   2.800797E+01   2.800797E+01   2.800797E+01   2.800797E+01   2.800797E+01   2.800797E+01   2.800797E+01   1.177182E+02   1.177182E+02   1.177182E+02   1.177182E+02   1.177182E+02   1.177182E+02   1.177182E+02   1.177182E+02   1.177182E+02   1.177182E+02   6.547220E+01   6.547220E+01   6.547220E+01   6.547220E+01   6.547220E+01   6.547220E+01   6.547220E+01   6.547220E+01   6.547220E+01   9.535954E+01   9.535954E+01   9.535954E+01   9.535954E+01   9.535954E+01   9.535954E+01   9.535954E+01   9.379183E+01   9.379183E+01   9.379183E+01   9.379183E+01   9.379183E+01   6.204795E+01   6.204795E+01   6.204795E+01   6.204795E+01   3.732014E+01   3.732014E+01   3.732014E+01   4.045267E+01   4.045267E+01   4.746719E+01   4.746719E+01   5.205890E+01   5.205890E+01   4.108069E+01   5.763065E+01   1.863703E+01   1.863703E+01   7.640311E+00   1.685621E+01   1.694528E+01   1.599734E+01   1.688541E+01   1.045975E+02   4.824099E+01   1.878065E+01   1.193437E+01   3.807522E+01   1.790427E+01   1.493323E+01   1.495282E+01   3.840865E+01   1.123190E+01   1.217125E+01   1.948206E+01   2.169872E+01   2.532121E+01   2.040718E+01   2.712534E+01   7.251477E+01   4.242432E+01   1.391492E+02   6.158840E+01   2.310674E+01   2.508067E+01   8.504871E+01   3.397736E+01   2.831942E+01   1.433446E+02   1.151544E+02   1.197145E+02   1.913868E+02   2.774473E+01   2.867103E+01   1.465805E+02   2.243524E+02   1.365064E+02
   2.017213E+02   1.172390E+02   9.103270E+01   8.123689E+01   8.083522E+01   2.082154E+01   2.625129E+01   1.367339E+02   1.024394E+02   1.080328E+02   1.434941E+02   6.094672E+01   9.770333E+01   3.848644E+01   4.161060E+01   2.944676E+01   5.322463E+00   2.904414E+01   2.990361E+01   2.693272E+01   4.401621E+01   6.640954E+01   2.510378E+01   4.324949E+01   1.459958E+02   5.210540E+02   2.141488E+02   2.328259E+02   6.700537E+01   2.250608E+01   1.286402E+01   9.718569E+00   3.249683E+01   5.017788E+01   3.053909E+01   5.033187E+01   3.318647E+01   6.182339E+01   1.908500E+01   1.405741E+01   1.940973E+01   1.349228E+01   1.793539E+01   1.142693E+01   2.460008E+01   2.609939E+01   1.484659E+02   7.315830E+01   7.923325E+01   6.163453E+01   3.410560E+02   4.841760E+02   2.004316E+02   2.047011E+01   2.875580E+01   3.012683E+01   9.930040E+00   7.603598E+01   1.053166E+02   8.630752E+01   6.755715E+01   2.848786E+01   9.488389E+00   5.660349E+00   3.784619E+01   5.619485E+01   9.275473E+01   1.090726E+02   1.533474E+02   6.524014E+01   1.339513E+01   2.722282E+01   1.208224E+01   2.585188E+01   2.981086E+01   1.296165E+01   3.920703E+01   3.657242E+01   4.334991E+01   5.866563E+01   2.913009E+01   6.525945E+01   9.350649E+01   4.391267E+01   5.556880E+01   9.590099E+01   1.223705E+02   1.195331E+02   2.275328E+01   1.034181E+01   1.034181E+01   8.863189E+00   1.536711E+01   1.536711E+01   2.360380E+01   3.595199E+01   3.595199E+01   2.041516E+01   2.041516E+01   2.041516E+01   8.021266E+01   8.021266E+01   8.021266E+01   1.639962E+02   1.639962E+02   1.639962E+02   1.639962E+02   1.639962E+02   1.007138E+02   1.007138E+02   1.007138E+02   1.007138E+02   1.007138E+02   4.601439E+01   4.601439E+01   4.601439E+01   4.601439E+01   4.601439E+01   4.601439E+01   4.601439E+01   1.729203E+02   1.729203E+02   1.729203E+02   1.729203E+02   1.729203E+02   1.729203E+02   1.729203E+02   1.729203E+02   1.729203E+02   1.729203E+02   6.089738E+01   6.089738E+01   6.089738E+01   6.089738E+01   6.089738E+01   6.089738E+01   6.089738E+01   6.089738E+01   6.089738E+01   1.022057E+02   1.022057E+02   1.022057E+02   1.022057E+02   1.022057E+02   1.022057E+02   1.022057E+02   9.211068E+01   9.211068E+01   9.211068E+01   9.211068E+01   9.211068E+01   5.449657E+01   5.449657E+01   5.449657E+01   5.449657E+01   4.734643E+01   4.734643E+01   4.734643E+01   1.752679E+01   1.752679E+01   2.800185E+01   2.800185E+01   3.487457E+01   3.487457E+01   9.026543E+01   6.761809E+01   1.822319E+01   1.822319E+01   7.018300E+00   9.449173E+00   9.718409E+00   1.294406E+01   1.591041E+01   5.299109E+01   6.821262E+01   3.463847E+01   1.531352E+01   3.619386E+01   3.457362E+01   1.871670E+01   1.714176E+01   2.585631E+01   3.490928E+01   1.671727E+01   2.170705E+01   1.559625E+01   2.827385E+01   1.280565E+01   4.180068E+01   5.374417E+01   2.553618E+01   1.153579E+02   6.492214E+01   2.906962E+01   1.976752E+01   1.920599E+01   2.212290E+01   3.611316E+01   4.627948E+01   1.086163E+02   1.108900E+02   2.048402E+02   6.348774E+01   3.805364E+01   1.195334E+02   1.442526E+02   5.369312E+01
   1.282516E+02   1.428093E+02   1.142584E+02   5.760068E+01   9.747569E+01   1.487244E+01   2.990115E+01   6.207584E+01   1.478597E+02   1.845489E+02   1.283952E+02   5.318213E+01   1.048670E+02   9.456161E+01   3.523186E+01   1.570391E+01   7.058091E+00   5.544963E+00   1.418144E+01   4.459657E+01   4.222329E+01   1.045223E+02   5.691667E+01   7.789712E+01   2.410113E+02   3.334234E+02   2.617667E+02   1.946621E+02   8.788652E+01   2.119913E+01   1.255752E+01   1.274333E+01   2.380181E+01   3.284620E+01   2.144624E+01   6.535176E+01   3.025188E+01   3.343673E+01   9.883988E+00   1.931886E+01   1.101612E+01   1.283118E+01   1.844352E+01   1.353685E+01   1.980651E+01   2.111072E+01   4.178202E+01   6.587484E+01   8.063916E+01   1.285414E+02   5.199644E+02   6.623741E+02   1.731819E+02   1.407806E+01   2.150771E+01   8.403539E+01   2.109878E+01   1.147648E+02   2.390584E+02   9.592343E+01   8.444225E+01   2.134935E+01   1.662577E+01   1.629721E+01   4.631155E+01   5.250640E+01   8.679460E+01   1.253701E+02   7.541632E+01   3.996879E+01   1.540730E+01   3.771445E+01   1.602671E+01   4.321324E+01   3.660832E+01   1.633607E+01   8.594695E+01   6.110689E+01   3.040250E+01   6.577387E+01   2.835932E+01   5.730280E+01   6.107304E+01   9.593949E+01   8.035900E+01   4.432007E+01   1.179948E+02   5.934479E+01   1.864021E+01   7.442702E+00   7.442702E+00   5.626307E+00   1.210640E+01   1.210640E+01   3.155509E+01   3.486695E+01   3.486695E+01   7.706129E+01   7.706129E+01   7.706129E+01   1.397815E+02   1.397815E+02   1.397815E+02   3.456994E+02   3.456994E+02   3.456994E+02   3.456994E+02   3.456994E+02   1.746340E+02   1.746340E+02   1.746340E+02   1.746340E+02   1.746340E+02   4.358826E+01   4.358826E+01   4.358826E+01   4.358826E+01   4.358826E+01   4.358826E+01   4.358826E+01   1.167687E+02   1.167687E+02   1.167687E+02   1.167687E+02   1.167687E+02   1.167687E+02   1.167687E+02   1.167687E+02   1.167687E+02   1.167687E+02   1.313552E+02   1.313552E+02   1.313552E+02   1.313552E+02   1.313552E+02   1.313552E+02   1.313552E+02   1.313552E+02   1.313552E+02   8.004107E+01   8.004107E+01   8.004107E+01   8.004107E+01   8.004107E+01   8.004107E+01   8.004107E+01   5.924598E+01   5.924598E+01   5.924598E+01   5.924598E+01   5.924598E+01   4.277617E+01   4.277617E+01   4.277617E+01   4.277617E+01   2.169048E+01   2.169048E+01   2.169048E+01   2.095899E+01   2.095899E+01   2.063643E+01   2.063643E+01   4.798144E+01   4.798144E+01   1.152246E+02   5.525137E+01   1.827587E+01   1.827587E+01   1.250418E+01   1.174698E+01   2.080119E+01   1.486098E+01   2.260900E+01   2.626547E+01   1.771971E+01   4.238035E+01   1.691399E+01   6.324527E+01   5.251614E+01   6.129769E+01   2.547445E+01   2.245182E+01   4.374775E+01   3.146439E+01   2.817125E+01   1.752570E+01   1.853794E+01   3.877182E+01   4.146092E+01   4.384912E+01   5.083173E+01   6.562135E+01   5.836092E+01   3.041732E+01   1.587671E+01   1.455479E+01   1.762634E+01   4.600402E+01   1.513192E+01   5.480509E+01   7.733730E+01   8.590015E+01   6.028967E+01   6.834558E+01   7.618537E+01   8.233425E+01   1.829216E+01
   1.393619E+02   6.569176E+01   1.118909E+02   6.931239E+01   8.370985E+01   2.302047E+01   2.966431E+01   6.085384E+01   1.915007E+02   1.839416E+02   1.954553E+02   1.523248E+02   6.455312E+01   4.716810E+01   3.668055E+01   7.807470E+00   4.807619E+00   7.765892E+00   2.230304E+01   3.205551E+01   6.934360E+01   6.893005E+01   1.206807E+02   1.599554E+02   1.831915E+02   2.527581E+02   1.362828E+02   1.809642E+02   5.983204E+01   3.459870E+01   2.097549E+01   1.274488E+01   1.136862E+01   3.794283E+01   2.952321E+01   3.647596E+01   2.308466E+01   2.171721E+01   9.855616E+00   2.566629E+01   1.575996E+01   4.405945E+01   5.054319E+01   3.705818E+01   1.964681E+01   2.634070E+01   4.457171E+01   3.347895E+01   4.590662E+01   1.520443E+02   2.466769E+02   3.360886E+02   1.201487E+02   6.094730E+01   2.558877E+01   3.505780E+01   5.104576E+01   7.605624E+01   2.003292E+02   7.193748E+01   4.583546E+01   3.397273E+01   1.354368E+01   2.239034E+01   2.137237E+01   3.429293E+01   5.396400E+01   1.690654E+02   5.866718E+01   3.326674E+01   2.863501E+01   1.306660E+01   1.305922E+01   5.446935E+01   3.278247E+01   1.207009E+01   5.455897E+01   8.419378E+01   5.397977E+01   3.786660E+01   2.423455E+01   3.859562E+01   7.297777E+01   9.351277E+01   8.275462E+01   3.852013E+01   7.864915E+01   4.598010E+01   1.808932E+01   1.505280E+01   1.505280E+01   5.696303E+00   9.602801E+00   9.602801E+00   2.491094E+01   4.617326E+01   4.617326E+01   1.048784E+02   1.048784E+02   1.048784E+02   9.658357E+01   9.658357E+01   9.658357E+01   5.725114E+02   5.725114E+02   5.725114E+02   5.725114E+02   5.725114E+02   1.685510E+02   1.685510E+02   1.685510E+02   1.685510E+02   1.685510E+02   5.832449E+01   5.832449E+01   5.832449E+01   5.832449E+01   5.832449E+01   5.832449E+01   5.832449E+01   5.728720E+01   5.728720E+01   5.728720E+01   5.728720E+01   5.728720E+01   5.728720E+01   5.728720E+01   5.728720E+01   5.728720E+01   5.728720E+01   1.666254E+02   1.666254E+02   1.666254E+02   1.666254E+02   1.666254E+02   1.666254E+02   1.666254E+02   1.666254E+02   1.666254E+02   1.370170E+02   1.370170E+02   1.370170E+02   1.370170E+02   1.370170E+02   1.370170E+02   1.370170E+02   1.224183E+02   1.224183E+02   1.224183E+02   1.224183E+02   1.224183E+02   3.874304E+01   3.874304E+01   3.874304E+01   3.874304E+01   1.822689E+01   1.822689E+01   1.822689E+01   2.910859E+01   2.910859E+01   4.178137E+01   4.178137E+01   1.001607E+02   1.001607E+02   1.141582E+02   8.200655E+01   1.153749E+01   1.153749E+01   2.558728E+01   1.214132E+01   8.319413E+00   1.161336E+01   1.513547E+01   1.371151E+01   1.642545E+01   2.857279E+01   2.792477E+01   1.130701E+02   4.959129E+01   5.136481E+01   5.026706E+01   2.003853E+01   1.776069E+01   3.819198E+01   4.699722E+01   2.597612E+01   2.637869E+01   4.889240E+01   5.526173E+01   2.549954E+01   2.110845E+01   2.693152E+01   1.247624E+02   3.634776E+01   3.760493E+01   1.271211E+01   1.853588E+01   3.717579E+01   8.316704E+00   3.824203E+01   7.288235E+01   1.037945E+02   6.988170E+01   8.342097E+01   1.131961E+02   7.700404E+01   2.139290E+01
   7.367720E+01   1.092146E+02   1.237640E+02   6.352265E+01   4.497103E+01   2.506700E+01   2.127835E+01   4.265893E+01   1.953838E+02   2.447699E+02   2.475888E+02   2.238567E+02   2.201479E+01   2.246986E+01   2.742435E+01   6.291409E+00   4.998971E+00   9.847251E+00   3.249420E+01   2.887204E+01   4.061753E+01   5.827986E+01   1.001436E+02   4.468087E+01   1.193115E+02   1.295101E+02   1.061443E+02   1.602910E+02   5.447927E+01   2.993715E+01   1.160833E+01   7.775527E+00   7.933989E+00   1.011610E+01   7.363923E+00   1.834538E+01   3.694178E+01   3.640473E+01   1.792320E+01   1.816167E+01   1.911743E+01   3.910186E+01   4.737685E+01   1.113096E+02   5.570927E+01   4.006737E+01   5.471964E+01   4.516066E+01   5.060014E+01   1.107017E+02   3.701595E+02   4.485273E+02   1.740820E+02   5.036195E+01   5.025612E+01   1.071398E+02   5.383968E+01   2.425083E+02   3.048096E+02   1.137239E+02   3.057146E+01   2.608334E+01   1.398704E+01   2.100769E+01   3.275439E+01   5.661217E+01   6.835875E+01   1.226992E+02   5.769157E+01   3.675922E+01   1.219259E+01   9.421074E+00   2.145168E+01   3.769215E+01   5.894324E+01   2.306106E+01   5.164271E+01   4.956163E+01   5.317232E+01   2.104728E+01   2.960531E+01   6.231782E+01   8.149150E+01   6.166216E+01   1.239976E+02   5.296245E+01   3.612444E+01   2.791722E+01   2.168578E+01   7.726530E+00   7.726530E+00   5.888945E+00   1.561864E+01   1.561864E+01   7.442359E+01   7.503543E+01   7.503543E+01   1.772158E+02   1.772158E+02   1.772158E+02   3.416454E+02   3.416454E+02   3.416454E+02   7.425209E+02   7.425209E+02   7.425209E+02   7.425209E+02   7.425209E+02   2.046982E+02   2.046982E+02   2.046982E+02   2.046982E+02   2.046982E+02   3.744082E+01   3.744082E+01   3.744082E+01   3.744082E+01   3.744082E+01   3.744082E+01   3.744082E+01   5.055207E+01   5.055207E+01   5.055207E+01   5.055207E+01   5.055207E+01   5.055207E+01   5.055207E+01   5.055207E+01   5.055207E+01   5.055207E+01   1.233504E+02   1.233504E+02   1.233504E+02   1.233504E+02   1.233504E+02   1.233504E+02   1.233504E+02   1.233504E+02   1.233504E+02   6.277596E+01   6.277596E+01   6.277596E+01   6.277596E+01   6.277596E+01   6.277596E+01   6.277596E+01   5.451026E+01   5.451026E+01   5.451026E+01   5.451026E+01   5.451026E+01   5.287022E+01   5.287022E+01   5.287022E+01   5.287022E+01   2.363440E+01   2.363440E+01   2.363440E+01   2.301322E+01   2.301322E+01   3.479121E+01   3.479121E+01   3.969258E+01   3.969258E+01   1.311573E+02   8.185654E+01   2.908223E+01   2.908223E+01   2.425092E+01   8.635123E+00   1.329671E+01   1.664795E+01   1.242625E+01   7.485669E+00   1.457929E+01   1.648540E+01   2.176999E+01   1.357085E+02   7.363119E+01   4.891516E+01   6.392370E+01   1.864743E+01   2.371685E+01   6.271265E+01   4.967271E+01   2.972095E+01   3.921537E+01   2.597419E+01   3.457271E+01   3.896703E+01   1.942868E+01   2.535664E+01   5.189337E+01   5.574886E+01   6.415381E+01   2.936818E+01   2.501973E+01   1.649422E+01   3.978779E+00   2.408838E+01   4.286762E+01   1.051695E+02   8.050099E+01   1.354918E+02   9.023299E+01   7.402235E+01   5.285259E+01