# LPF package for  MODFLOW-2005, generated by Flopy.
        53    -1E+30         0  
         1
         0
   0.000000E+00
         0
         0
INTERNAL               1 (207E15.6) -1 #hk layer 1                    
   5.189328E+01   6.685931E+01   2.794286E+01   2.702623E+01   1.310181E+01   3.314848E+01   1.161951E+02   2.025083E+02   1.830404E+02   1.003142E+02   1.126925E+01   4.148650E+00   2.190161E+01   5.231308E+01   4.640665E+01   8.901103E+01   4.229713E+01   8.583859E+01   5.313178E+01   5.027161E+01   4.903223E+01   3.347945E+01   1.548442E+01   3.574504E+01   2.220189E+01   3.932208E+01   6.963994E+01   1.184813E+02   1.623896E+02   1.735303E+02   2.055977E+02   5.770502E+01   2.679430E+01   1.551396E+02   1.604849E+02   1.343792E+02   1.915424E+02   1.077146E+02   5.329832E+01   1.317480E+02   1.157973E+02   1.451986E+01   1.191528E+01   7.237254E+01   4.333935E+01   3.944203E+01   4.209516E+01   5.018177E+01   1.642695E+02   1.446041E+02   5.410336E+01   3.573047E+01   3.437763E+01   4.803019E+01   2.416290E+01   2.483490E+01   2.917586E+01   6.053484E+01   1.327566E+01   3.333298E+01   5.877403E+01   6.843094E+01   5.813107E+01   7.041502E+01   2.053507E+01   5.510041E+01   8.176650E+01   3.463923E+01   1.074380E+01   1.574819E+01   8.298490E+00   7.802664E+01   8.682738E+01   1.805153E+02   1.842377E+02   3.922383E+02   1.150242E+02   3.065223E+02   7.797726E+01   5.461768E+01   6.342870E+01   1.195090E+02   1.689595E+02   5.264743E+01   7.209232E+01   3.462035E+01   4.638752E+01   2.035005E+01   3.292268E+01   8.069966E+01   8.069966E+01   5.067341E+01   7.216221E+01   7.216221E+01   7.363686E+01   1.042322E+02   1.042322E+02   1.093814E+02   1.093814E+02   1.093814E+02   2.378286E+02   2.378286E+02   2.378286E+02   2.281521E+02   2.281521E+02   2.281521E+02   2.281521E+02   2.281521E+02   1.772625E+02   1.772625E+02   1.772625E+02   1.772625E+02   1.772625E+02   1.063751E+02   1.063751E+02   1.063751E+02   1.063751E+02   1.063751E+02   1.063751E+02   1.063751E+02   1.509272E+01   1.509272E+01   1.509272E+01   1.509272E+01   1.509272E+01   1.509272E+01   1.509272E+01   1.509272E+01   1.509272E+01   1.509272E+01   1.595636E+01   1.595636E+01   1.595636E+01   1.595636E+01   1.595636E+01   1.595636E+01   1.595636E+01   1.595636E+01   1.595636E+01   2.560101E+01   2.560101E+01   2.560101E+01   2.560101E+01   2.560101E+01   2.560101E+01   2.560101E+01   2.594187E+01   2.594187E+01   2.594187E+01   2.594187E+01   2.594187E+01   2.571985E+01   2.571985E+01   2.571985E+01   2.571985E+01   1.277040E+01   1.277040E+01   1.277040E+01   1.440090E+01   1.440090E+01   3.088500E+01   3.088500E+01   4.060344E+01   4.060344E+01   7.491525E+01   1.421963E+02   1.470658E+02   1.470658E+02   4.931683E+01   1.909261E+01   3.080374E+01   4.804836E+01   1.674393E+02   1.354142E+02   1.339778E+02   4.732730E+01   1.025258E+02   4.057531E+01   3.107726E+01   8.400583E+01   1.603085E+02   2.722393E+02   1.856651E+02   1.758034E+02   1.845422E+02   3.984005E+02   1.309495E+02   4.629538E+01   4.925453E+01   6.482306E+01   7.077715E+01   8.634589E+01   3.962416E+01   1.478605E+02   3.596805E+02   2.288092E+02   9.493919E+01   7.297622E+01   6.427044E+01   4.005021E+01   2.181969E+01   1.933407E+01   2.872668E+01   8.645004E+01   6.833584E+01   5.832892E+01   2.790492E+01
   1.447457E+02   1.679342E+02   5.844644E+01   7.395905E+01   2.674528E+01   1.046166E+02   7.267194E+01   1.481483E+02   1.412310E+02   2.109459E+02   2.446879E+01   3.342645E+00   7.719069E+00   1.763407E+01   3.473792E+01   1.072596E+02   1.020245E+02   3.665172E+01   7.177197E+01   6.292879E+01   7.385328E+01   5.313635E+01   7.527812E+00   3.135768E+01   1.799377E+01   3.285122E+01   7.539649E+01   1.355068E+02   1.466170E+02   5.991362E+01   9.355189E+01   5.896009E+01   3.339619E+01   7.294813E+01   1.075297E+02   1.000089E+02   1.709741E+02   6.558326E+01   5.210917E+01   1.647987E+02   3.810851E+01   2.650321E+01   2.193463E+01   5.686073E+01   3.872078E+01   2.044180E+01   3.173855E+01   3.503244E+01   1.140790E+02   1.240910E+02   7.063575E+01   6.254016E+01   5.047992E+01   2.519968E+01   3.615749E+01   3.604599E+01   2.083688E+01   7.414986E+01   2.412214E+01   3.357424E+01   4.375049E+01   6.667503E+01   7.859766E+01   7.903104E+01   2.522878E+01   4.938341E+01   6.374170E+01   7.147069E+01   1.739112E+01   6.429700E+00   1.489886E+01   5.961717E+01   1.131598E+02   2.634112E+02   3.087687E+02   3.246468E+02   3.478929E+02   3.616158E+02   1.769567E+02   7.578757E+01   5.359492E+01   1.312565E+02   1.623932E+02   1.569821E+02   1.400132E+02   1.226163E+01   1.759228E+01   2.344486E+01   6.608157E+01   7.219565E+01   7.219565E+01   6.222336E+01   5.673029E+01   5.673029E+01   7.033978E+01   7.730804E+01   7.730804E+01   1.495311E+02   1.495311E+02   1.495311E+02   2.427464E+02   2.427464E+02   2.427464E+02   2.731767E+02   2.731767E+02   2.731767E+02   2.731767E+02   2.731767E+02   1.486942E+02   1.486942E+02   1.486942E+02   1.486942E+02   1.486942E+02   1.031807E+02   1.031807E+02   1.031807E+02   1.031807E+02   1.031807E+02   1.031807E+02   1.031807E+02   1.283559E+01   1.283559E+01   1.283559E+01   1.283559E+01   1.283559E+01   1.283559E+01   1.283559E+01   1.283559E+01   1.283559E+01   1.283559E+01   2.627843E+01   2.627843E+01   2.627843E+01   2.627843E+01   2.627843E+01   2.627843E+01   2.627843E+01   2.627843E+01   2.627843E+01   2.320946E+01   2.320946E+01   2.320946E+01   2.320946E+01   2.320946E+01   2.320946E+01   2.320946E+01   4.687957E+01   4.687957E+01   4.687957E+01   4.687957E+01   4.687957E+01   1.677015E+01   1.677015E+01   1.677015E+01   1.677015E+01   2.104915E+01   2.104915E+01   2.104915E+01   3.285809E+01   3.285809E+01   1.693361E+01   1.693361E+01   3.206195E+01   3.206195E+01   6.863663E+01   1.586029E+02   1.090901E+02   1.090901E+02   7.291910E+01   2.919121E+01   4.890791E+01   1.089635E+02   9.374692E+01   5.234230E+01   1.165346E+02   5.331094E+01   3.597615E+01   2.525422E+01   2.598058E+01   1.211200E+02   1.067206E+02   1.632499E+02   2.727155E+02   3.628403E+02   1.246015E+02   1.441167E+02   1.411555E+02   6.506078E+01   6.639621E+01   1.002555E+02   1.013867E+02   1.658362E+02   3.375348E+01   2.095616E+02   2.198005E+02   3.246320E+02   1.006402E+02   8.397064E+01   1.350739E+02   7.600532E+01   2.127536E+01   2.577445E+01   4.142932E+01   6.811963E+01   5.866430E+01   7.962521E+01   1.970656E+01
   1.552172E+02   1.710976E+02   1.960310E+02   4.246465E+01   6.705812E+01   1.491859E+02   1.094934E+02   1.790023E+02   5.418806E+01   2.690042E+02   2.064218E+01   5.738364E+00   1.518462E+01   7.560433E+00   3.781926E+01   4.499797E+01   8.197945E+01   3.820545E+01   3.155597E+01   1.226217E+02   5.178307E+01   4.678037E+01   2.379465E+01   2.092402E+01   2.860894E+01   3.740246E+01   6.605734E+01   1.193855E+02   6.194088E+01   5.863998E+01   7.539753E+01   5.845513E+01   5.003261E+01   5.199941E+01   7.793740E+01   1.156926E+02   6.673554E+01   6.077619E+01   5.017510E+01   9.908414E+01   3.801883E+01   6.494586E+01   5.605864E+01   5.445943E+01   6.378367E+01   2.362135E+01   8.615429E+01   4.560084E+01   7.111499E+01   7.620216E+01   1.228112E+02   5.696929E+01   5.622322E+01   2.755479E+01   5.750336E+01   5.360509E+01   3.710416E+01   5.107489E+01   6.600415E+01   5.104357E+01   3.834381E+01   8.668940E+01   1.417921E+02   1.309834E+02   5.654345E+01   7.689606E+01   7.189925E+01   6.436814E+01   2.411866E+01   1.896040E+01   1.886372E+01   6.110050E+01   1.599411E+02   2.784560E+02   5.162919E+02   2.673594E+02   1.441138E+02   2.472709E+02   4.990464E+01   4.839005E+01   2.897594E+01   3.000755E+01   9.801161E+01   1.229322E+02   7.599593E+01   1.685713E+01   2.888011E+01   5.667493E+01   5.002169E+01   1.964217E+02   1.964217E+02   6.124001E+01   6.289917E+01   6.289917E+01   5.733731E+01   7.285366E+01   7.285366E+01   6.059424E+01   6.059424E+01   6.059424E+01   1.147233E+02   1.147233E+02   1.147233E+02   1.441126E+02   1.441126E+02   1.441126E+02   1.441126E+02   1.441126E+02   1.760399E+02   1.760399E+02   1.760399E+02   1.760399E+02   1.760399E+02   5.769070E+01   5.769070E+01   5.769070E+01   5.769070E+01   5.769070E+01   5.769070E+01   5.769070E+01   1.257332E+01   1.257332E+01   1.257332E+01   1.257332E+01   1.257332E+01   1.257332E+01   1.257332E+01   1.257332E+01   1.257332E+01   1.257332E+01   2.174297E+01   2.174297E+01   2.174297E+01   2.174297E+01   2.174297E+01   2.174297E+01   2.174297E+01   2.174297E+01   2.174297E+01   6.445940E+01   6.445940E+01   6.445940E+01   6.445940E+01   6.445940E+01   6.445940E+01   6.445940E+01   5.020257E+01   5.020257E+01   5.020257E+01   5.020257E+01   5.020257E+01   2.204554E+01   2.204554E+01   2.204554E+01   2.204554E+01   4.507954E+01   4.507954E+01   4.507954E+01   8.237071E+01   8.237071E+01   2.032269E+01   2.032269E+01   4.081512E+01   4.081512E+01   4.173616E+01   1.080252E+02   5.102909E+01   5.102909E+01   8.440981E+01   2.541142E+01   9.868920E+01   1.227109E+02   9.619426E+01   6.896657E+01   8.864978E+01   2.261261E+01   2.546688E+01   1.401344E+01   2.269789E+01   1.140023E+02   6.711318E+01   1.460129E+02   3.749673E+02   2.238477E+02   2.271234E+02   1.159173E+02   5.183524E+01   4.491029E+01   1.746548E+02   2.368468E+02   2.873651E+02   4.940484E+02   1.358638E+02   1.639042E+02   3.294740E+02   2.586849E+02   1.666324E+02   8.297424E+01   1.152998E+02   1.113833E+02   2.261282E+01   7.127234E+01   7.770633E+01   6.764990E+01   4.818463E+01   5.514915E+01   1.435317E+01
   1.173816E+02   7.428943E+01   1.989532E+02   3.318600E+01   4.834776E+01   1.056324E+02   7.456540E+01   1.719047E+02   5.913065E+01   5.905558E+01   1.905378E+01   8.025868E+00   2.015004E+01   1.695720E+01   4.675170E+01   5.512649E+01   5.040757E+01   8.377473E+01   6.603854E+01   1.477631E+02   6.354454E+01   7.192765E+01   5.588894E+01   6.448064E+01   5.423014E+01   4.271432E+01   6.607559E+01   7.957125E+01   5.994401E+01   8.796801E+01   4.129217E+01   1.659971E+02   4.336208E+01   1.208016E+02   6.298948E+01   4.970612E+01   3.175368E+01   6.760564E+01   3.804574E+01   4.002237E+01   5.416710E+01   5.276269E+01   5.243977E+01   3.416362E+01   2.226589E+01   1.752086E+01   9.827200E+01   4.037840E+01   9.048911E+01   8.186809E+01   6.791689E+01   9.154356E+01   5.754305E+01   2.911465E+01   2.635634E+01   3.764668E+01   2.462570E+01   4.177208E+01   9.258485E+01   2.076199E+02   8.278773E+01   2.280575E+02   5.829957E+01   7.913630E+01   1.343954E+02   4.412299E+01   7.762212E+01   7.023866E+01   4.651450E+01   2.574296E+01   1.428723E+01   7.047646E+01   2.097272E+02   3.429388E+02   2.032051E+02   8.579428E+01   6.070045E+01   2.189361E+02   2.678863E+01   2.116831E+01   2.189197E+01   2.142463E+01   6.460201E+01   7.344405E+01   7.788890E+01   3.184581E+01   2.088832E+01   5.077650E+01   5.395067E+01   1.535304E+02   1.535304E+02   1.005807E+02   5.203658E+01   5.203658E+01   4.065139E+01   1.056042E+02   1.056042E+02   8.024542E+01   8.024542E+01   8.024542E+01   1.469273E+02   1.469273E+02   1.469273E+02   2.579635E+02   2.579635E+02   2.579635E+02   2.579635E+02   2.579635E+02   1.349921E+02   1.349921E+02   1.349921E+02   1.349921E+02   1.349921E+02   4.687518E+01   4.687518E+01   4.687518E+01   4.687518E+01   4.687518E+01   4.687518E+01   4.687518E+01   2.897434E+01   2.897434E+01   2.897434E+01   2.897434E+01   2.897434E+01   2.897434E+01   2.897434E+01   2.897434E+01   2.897434E+01   2.897434E+01   2.284358E+01   2.284358E+01   2.284358E+01   2.284358E+01   2.284358E+01   2.284358E+01   2.284358E+01   2.284358E+01   2.284358E+01   4.849446E+01   4.849446E+01   4.849446E+01   4.849446E+01   4.849446E+01   4.849446E+01   4.849446E+01   7.282088E+01   7.282088E+01   7.282088E+01   7.282088E+01   7.282088E+01   6.524610E+01   6.524610E+01   6.524610E+01   6.524610E+01   7.318832E+01   7.318832E+01   7.318832E+01   1.027829E+02   1.027829E+02   1.016823E+02   1.016823E+02   1.298173E+02   1.298173E+02   5.750132E+01   1.241377E+02   1.071739E+02   1.071739E+02   9.826633E+01   6.532062E+01   2.514150E+02   1.293478E+02   1.213556E+02   8.901399E+01   1.481252E+02   5.494064E+01   4.355917E+01   1.570707E+01   9.221909E+00   2.792296E+01   5.278606E+01   7.946882E+01   1.372260E+02   1.012611E+02   1.206239E+02   6.042198E+01   2.243953E+01   3.402623E+01   1.604901E+02   2.006469E+02   3.068393E+02   3.002614E+02   2.073398E+02   2.012955E+02   3.675918E+02   1.681868E+02   1.124705E+02   1.982916E+02   9.078233E+01   5.069754E+01   2.683025E+01   1.601600E+02   5.986693E+01   5.849981E+01   5.772754E+01   4.975349E+01   1.179070E+01
   8.250002E+01   6.992620E+01   5.545116E+01   3.633633E+01   5.009589E+01   6.714404E+01   1.107049E+02   1.245442E+02   3.783620E+01   3.162081E+01   1.771991E+01   1.452539E+01   2.408952E+01   2.887486E+01   7.568702E+01   9.757408E+01   8.137057E+01   8.501843E+01   6.560661E+01   5.500844E+01   7.361673E+01   6.980437E+01   7.195391E+01   1.347026E+02   5.137534E+01   4.177065E+01   4.846204E+01   1.136902E+02   5.152449E+01   7.342668E+01   3.511626E+01   1.594293E+02   5.549266E+01   8.933546E+01   2.745158E+01   3.277981E+01   1.247047E+01   2.952032E+01   3.311905E+01   3.561387E+01   8.633422E+01   5.338341E+01   9.035627E+01   4.071927E+01   7.256368E+01   3.344916E+01   7.512608E+01   1.089031E+02   1.132987E+02   6.745094E+01   7.245465E+01   1.051182E+02   7.081918E+01   3.917173E+01   4.361530E+01   3.090362E+01   1.848519E+01   1.457111E+01   7.601782E+01   1.123935E+02   1.393882E+02   1.650095E+02   7.386491E+01   9.014629E+01   9.950587E+01   5.927748E+01   1.491678E+02   5.562470E+01   1.726380E+01   2.410908E+01   2.019645E+01   4.087545E+01   2.347838E+02   1.467198E+02   7.310149E+01   6.318354E+01   4.928484E+01   1.058667E+02   4.996431E+01   6.278492E+01   2.575871E+01   5.753643E+01   8.320816E+01   6.302152E+01   1.312560E+02   5.696190E+01   2.612239E+01   8.420879E+01   1.391647E+02   9.083266E+01   9.083266E+01   6.000109E+01   6.516239E+01   6.516239E+01   4.489660E+01   6.450675E+01   6.450675E+01   8.953869E+01   8.953869E+01   8.953869E+01   1.171303E+02   1.171303E+02   1.171303E+02   5.198966E+01   5.198966E+01   5.198966E+01   5.198966E+01   5.198966E+01   9.649465E+01   9.649465E+01   9.649465E+01   9.649465E+01   9.649465E+01   3.466032E+01   3.466032E+01   3.466032E+01   3.466032E+01   3.466032E+01   3.466032E+01   3.466032E+01   1.631630E+01   1.631630E+01   1.631630E+01   1.631630E+01   1.631630E+01   1.631630E+01   1.631630E+01   1.631630E+01   1.631630E+01   1.631630E+01   4.407940E+01   4.407940E+01   4.407940E+01   4.407940E+01   4.407940E+01   4.407940E+01   4.407940E+01   4.407940E+01   4.407940E+01   1.367150E+02   1.367150E+02   1.367150E+02   1.367150E+02   1.367150E+02   1.367150E+02   1.367150E+02   1.435456E+02   1.435456E+02   1.435456E+02   1.435456E+02   1.435456E+02   8.290603E+01   8.290603E+01   8.290603E+01   8.290603E+01   8.680000E+01   8.680000E+01   8.680000E+01   1.719517E+02   1.719517E+02   1.568996E+02   1.568996E+02   1.519375E+02   1.519375E+02   1.293192E+02   1.141807E+02   9.684877E+01   9.684877E+01   3.651603E+01   1.668799E+02   2.132444E+02   1.997921E+02   3.002218E+02   8.900667E+01   5.422983E+01   6.110661E+01   4.502573E+01   3.716325E+01   6.848511E+00   2.612950E+01   4.540957E+01   8.309690E+01   1.634852E+02   1.059677E+02   1.314014E+02   4.384506E+01   1.299530E+01   2.781207E+01   2.359488E+02   2.227519E+02   4.735370E+02   3.721981E+02   3.433468E+02   3.577727E+02   2.192532E+02   1.430893E+02   8.133472E+01   8.120226E+01   1.453308E+02   6.612711E+01   6.263562E+01   2.089303E+02   1.737051E+02   9.771317E+01   9.554387E+01   5.358016E+01   2.135792E+01
   1.320979E+02   8.462467E+01   8.093511E+01   9.484261E+01   9.227135E+01   1.301131E+02   1.105243E+02   6.060763E+01   3.727589E+01   2.412506E+01   1.822225E+01   2.147514E+01   2.258399E+01   5.222747E+01   1.012315E+02   1.283198E+02   6.421685E+01   4.277703E+01   4.019741E+01   3.727268E+01   5.879075E+01   9.428024E+01   7.245866E+01   1.741509E+02   5.568475E+01   3.964310E+01   5.109428E+01   1.009093E+02   5.195614E+01   5.832998E+01   3.782402E+01   1.286599E+02   5.544746E+01   7.492627E+01   1.767803E+01   6.030854E+01   1.608599E+01   2.029368E+01   1.000553E+01   1.422923E+01   6.218216E+01   4.570104E+01   8.004005E+01   3.360547E+01   6.075091E+01   8.059862E+01   9.726380E+01   1.270712E+02   1.133806E+02   1.434789E+02   7.465582E+01   5.404099E+01   4.985624E+01   2.139571E+01   2.948877E+01   3.683653E+01   2.193620E+01   1.955220E+01   6.221360E+01   6.026552E+01   1.735349E+02   1.085523E+02   6.614634E+01   1.493169E+02   1.196775E+02   9.253032E+01   8.559288E+01   5.353515E+01   1.470845E+01   2.368621E+01   2.698405E+01   5.738787E+01   2.401221E+02   7.646442E+01   1.479191E+02   7.090470E+01   6.095417E+01   6.481043E+01   9.688054E+01   5.590291E+01   9.048529E+01   7.888424E+01   1.763932E+02   1.932837E+02   6.631203E+01   9.746748E+01   4.902449E+01   3.257578E+01   6.688084E+01   7.052451E+01   7.052451E+01   3.601610E+01   6.331678E+01   6.331678E+01   3.248254E+01   6.823857E+01   6.823857E+01   2.330301E+02   2.330301E+02   2.330301E+02   7.872355E+01   7.872355E+01   7.872355E+01   4.402761E+01   4.402761E+01   4.402761E+01   4.402761E+01   4.402761E+01   7.474287E+01   7.474287E+01   7.474287E+01   7.474287E+01   7.474287E+01   3.150894E+01   3.150894E+01   3.150894E+01   3.150894E+01   3.150894E+01   3.150894E+01   3.150894E+01   3.716978E+01   3.716978E+01   3.716978E+01   3.716978E+01   3.716978E+01   3.716978E+01   3.716978E+01   3.716978E+01   3.716978E+01   3.716978E+01   3.930468E+01   3.930468E+01   3.930468E+01   3.930468E+01   3.930468E+01   3.930468E+01   3.930468E+01   3.930468E+01   3.930468E+01   8.237321E+01   8.237321E+01   8.237321E+01   8.237321E+01   8.237321E+01   8.237321E+01   8.237321E+01   2.200615E+02   2.200615E+02   2.200615E+02   2.200615E+02   2.200615E+02   1.206793E+02   1.206793E+02   1.206793E+02   1.206793E+02   8.450310E+01   8.450310E+01   8.450310E+01   1.218488E+02   1.218488E+02   2.293722E+02   2.293722E+02   2.281597E+02   2.281597E+02   1.287640E+02   3.393199E+01   9.173949E+01   9.173949E+01   2.150747E+01   1.093520E+02   1.870127E+02   4.251106E+02   4.093974E+02   8.769276E+01   5.714318E+01   8.036615E+01   2.135577E+01   3.936307E+01   4.121824E+01   7.657158E+01   2.930035E+01   8.972208E+01   1.941710E+02   7.640170E+01   1.192548E+02   3.569209E+01   8.996071E+00   4.232920E+01   6.337731E+01   2.777476E+02   2.701322E+02   1.603879E+02   1.774702E+02   2.141095E+02   5.492019E+01   1.304100E+02   5.322173E+01   5.372839E+01   5.912018E+01   4.097135E+01   6.166359E+01   9.858620E+01   1.610014E+02   1.106161E+02   1.325615E+02   7.036584E+01   4.406934E+01
   2.090993E+02   8.568459E+01   2.644188E+02   1.093096E+02   1.077677E+02   5.646281E+01   3.705728E+01   3.465131E+01   4.452604E+01   2.073974E+01   2.317933E+01   2.099676E+01   3.420631E+01   6.984813E+01   1.121739E+02   1.670107E+02   7.698068E+01   4.902262E+01   3.322061E+01   3.573278E+01   4.932616E+01   9.926063E+01   7.013980E+01   1.038151E+02   9.640124E+01   1.046993E+02   8.535245E+01   7.584784E+01   2.218650E+01   6.397312E+01   9.239591E+01   8.077001E+01   4.460877E+01   3.325298E+01   3.847554E+01   2.631791E+01   2.660962E+01   2.847762E+01   7.158442E+00   1.124780E+01   3.637442E+01   7.023287E+01   1.011603E+02   4.467470E+01   7.255325E+01   5.802834E+01   1.503941E+02   7.664466E+01   6.282728E+01   4.920913E+01   6.263148E+01   8.094459E+01   7.182229E+01   1.921091E+01   2.173178E+01   4.224843E+01   1.312839E+01   2.258181E+01   7.947431E+01   7.800827E+01   1.930551E+02   2.781215E+01   3.413849E+01   9.585200E+01   1.371037E+02   8.644470E+01   8.483146E+01   6.122193E+01   2.936766E+01   2.173982E+01   7.735826E+01   1.632067E+02   2.695567E+02   1.391379E+02   1.353811E+02   8.049760E+01   4.235941E+01   4.395748E+01   5.941924E+01   5.090556E+01   8.171241E+01   7.962440E+01   1.097728E+02   1.187620E+02   1.032672E+02   1.000460E+02   2.512259E+01   2.674627E+01   4.771601E+01   7.526604E+01   7.526604E+01   6.501000E+01   6.975021E+01   6.975021E+01   4.811023E+01   6.757429E+01   6.757429E+01   3.356221E+02   3.356221E+02   3.356221E+02   1.005601E+02   1.005601E+02   1.005601E+02   7.519509E+01   7.519509E+01   7.519509E+01   7.519509E+01   7.519509E+01   3.663808E+01   3.663808E+01   3.663808E+01   3.663808E+01   3.663808E+01   2.006318E+01   2.006318E+01   2.006318E+01   2.006318E+01   2.006318E+01   2.006318E+01   2.006318E+01   9.016882E+01   9.016882E+01   9.016882E+01   9.016882E+01   9.016882E+01   9.016882E+01   9.016882E+01   9.016882E+01   9.016882E+01   9.016882E+01   7.066819E+01   7.066819E+01   7.066819E+01   7.066819E+01   7.066819E+01   7.066819E+01   7.066819E+01   7.066819E+01   7.066819E+01   8.401820E+01   8.401820E+01   8.401820E+01   8.401820E+01   8.401820E+01   8.401820E+01   8.401820E+01   2.064376E+02   2.064376E+02   2.064376E+02   2.064376E+02   2.064376E+02   2.761051E+02   2.761051E+02   2.761051E+02   2.761051E+02   6.992384E+01   6.992384E+01   6.992384E+01   1.894149E+02   1.894149E+02   2.953235E+02   2.953235E+02   2.143079E+02   2.143079E+02   5.739730E+02   6.305784E+01   8.312422E+01   8.312422E+01   4.932916E+01   2.075927E+02   2.570004E+02   2.947403E+02   2.925802E+02   1.176930E+02   5.391482E+01   2.918781E+01   2.766227E+01   1.817755E+01   5.189233E+01   1.536044E+02   3.594265E+01   9.883228E+01   1.023260E+02   9.953345E+01   1.460425E+02   5.544977E+01   1.945199E+01   1.519488E+01   1.020708E+02   9.785345E+01   1.399596E+02   1.253343E+02   1.548599E+02   1.555712E+02   1.230783E+02   2.802560E+02   9.932590E+01   5.109862E+01   6.031480E+01   4.806381E+01   6.987624E+01   5.547962E+01   5.043410E+01   1.584807E+02   1.217775E+02   3.627873E+01   6.657227E+01
   1.648459E+02   1.181539E+02   2.044232E+02   5.013086E+02   2.482827E+02   5.407790E+01   2.528820E+01   3.093063E+01   3.066123E+01   3.646325E+01   5.008052E+01   2.779193E+01   6.657576E+01   9.806964E+01   6.202051E+01   1.676958E+02   7.253905E+01   5.984631E+01   1.498897E+01   1.515560E+01   3.136926E+01   1.098825E+02   1.775423E+02   2.756543E+02   8.405499E+01   1.392039E+02   1.330887E+02   1.040743E+02   2.954117E+01   2.976871E+01   5.416774E+01   8.717661E+01   1.124571E+02   3.966441E+01   4.239348E+01   5.183049E+01   2.462397E+01   4.383186E+01   1.272225E+01   1.238761E+01   4.163163E+01   1.981263E+01   3.880743E+01   4.832161E+01   1.189717E+02   1.720382E+02   1.211287E+02   8.924863E+01   8.198038E+01   7.472222E+01   8.004377E+01   5.817153E+01   3.646630E+01   2.444765E+01   2.891165E+01   2.516802E+01   5.679705E+00   1.876397E+01   7.669580E+01   6.072812E+01   1.696153E+02   4.590742E+01   9.330148E+01   9.149696E+01   1.216933E+02   4.662994E+01   3.492931E+01   9.101753E+01   4.462449E+01   6.336627E+01   5.053598E+01   6.725625E+01   2.033956E+02   3.596148E+01   6.525308E+01   4.594698E+01   1.926994E+01   3.765058E+01   2.445228E+01   4.081843E+01   9.774321E+01   3.301376E+01   1.275140E+02   1.091572E+02   1.191072E+02   4.032735E+01   1.580373E+01   1.693818E+01   2.722075E+01   7.814890E+01   7.814890E+01   1.044690E+02   2.496565E+02   2.496565E+02   5.507905E+01   1.380741E+02   1.380741E+02   4.763574E+02   4.763574E+02   4.763574E+02   1.508623E+02   1.508623E+02   1.508623E+02   1.274628E+02   1.274628E+02   1.274628E+02   1.274628E+02   1.274628E+02   4.172527E+01   4.172527E+01   4.172527E+01   4.172527E+01   4.172527E+01   2.197976E+01   2.197976E+01   2.197976E+01   2.197976E+01   2.197976E+01   2.197976E+01   2.197976E+01   1.412685E+02   1.412685E+02   1.412685E+02   1.412685E+02   1.412685E+02   1.412685E+02   1.412685E+02   1.412685E+02   1.412685E+02   1.412685E+02   1.145783E+02   1.145783E+02   1.145783E+02   1.145783E+02   1.145783E+02   1.145783E+02   1.145783E+02   1.145783E+02   1.145783E+02   1.755403E+02   1.755403E+02   1.755403E+02   1.755403E+02   1.755403E+02   1.755403E+02   1.755403E+02   2.171495E+02   2.171495E+02   2.171495E+02   2.171495E+02   2.171495E+02   3.353965E+02   3.353965E+02   3.353965E+02   3.353965E+02   1.532659E+02   1.532659E+02   1.532659E+02   1.472723E+02   1.472723E+02   2.538319E+02   2.538319E+02   1.342996E+02   1.342996E+02   1.772379E+02   1.260804E+02   1.868568E+02   1.868568E+02   7.835007E+01   1.007167E+02   1.935310E+02   1.337824E+02   2.099494E+02   1.144732E+02   4.309810E+01   5.195585E+01   1.827709E+01   2.749895E+01   1.750720E+01   4.450885E+01   2.235522E+01   5.833535E+01   1.074747E+02   8.642984E+01   5.716399E+01   5.747525E+01   2.610431E+01   3.149650E+01   1.159164E+02   2.379387E+02   3.892601E+02   1.570762E+02   2.169693E+02   1.984572E+02   2.847327E+02   1.445288E+02   1.240188E+02   2.706342E+01   8.577880E+01   1.076862E+02   5.349949E+01   6.684085E+01   3.341906E+01   1.065861E+02   1.322298E+02   7.850340E+01   7.462571E+01
   2.742166E+02   1.312220E+02   2.198264E+02   4.905652E+02   2.647809E+02   8.377496E+01   2.450782E+01   2.815060E+01   3.817381E+01   2.631586E+01   3.011602E+01   3.171674E+01   5.550282E+01   8.199925E+01   7.425428E+01   2.311026E+02   6.358014E+01   3.510343E+01   1.689276E+01   1.240098E+01   1.876409E+01   7.206121E+01   2.370836E+02   1.458666E+02   9.481474E+01   9.973668E+01   5.779410E+01   1.375176E+02   4.341522E+01   2.154675E+01   2.770541E+01   7.922089E+01   2.524330E+02   7.575927E+01   3.460832E+01   5.065078E+01   3.382036E+01   4.103681E+01   2.007677E+01   1.865498E+01   3.259526E+01   2.355957E+01   3.334236E+01   9.769717E+01   1.284441E+02   2.855932E+02   1.717935E+02   1.170323E+02   1.473081E+02   1.083715E+02   9.377232E+01   4.114941E+01   6.509811E+01   5.332319E+01   1.675082E+01   1.408942E+01   8.676377E+00   1.953930E+01   4.521433E+01   4.660742E+01   2.171483E+02   8.487665E+01   3.905437E+01   8.223508E+01   1.195724E+02   6.847247E+01   5.035434E+01   6.982554E+01   2.170847E+01   8.413753E+01   5.384446E+01   5.161346E+01   1.147986E+02   3.986515E+01   5.032707E+01   3.975865E+01   1.199038E+01   1.654012E+01   4.632372E+01   4.096296E+01   5.612613E+01   7.485250E+01   5.977280E+01   2.371192E+02   2.061119E+02   2.120014E+01   7.807271E+00   4.103436E+01   3.849939E+01   8.590228E+01   8.590228E+01   1.762503E+01   5.493951E+01   5.493951E+01   1.209292E+02   1.165059E+02   1.165059E+02   2.433653E+02   2.433653E+02   2.433653E+02   7.295968E+01   7.295968E+01   7.295968E+01   9.672736E+01   9.672736E+01   9.672736E+01   9.672736E+01   9.672736E+01   2.073663E+01   2.073663E+01   2.073663E+01   2.073663E+01   2.073663E+01   2.146298E+01   2.146298E+01   2.146298E+01   2.146298E+01   2.146298E+01   2.146298E+01   2.146298E+01   4.060075E+01   4.060075E+01   4.060075E+01   4.060075E+01   4.060075E+01   4.060075E+01   4.060075E+01   4.060075E+01   4.060075E+01   4.060075E+01   6.433226E+01   6.433226E+01   6.433226E+01   6.433226E+01   6.433226E+01   6.433226E+01   6.433226E+01   6.433226E+01   6.433226E+01   1.756527E+02   1.756527E+02   1.756527E+02   1.756527E+02   1.756527E+02   1.756527E+02   1.756527E+02   1.634386E+02   1.634386E+02   1.634386E+02   1.634386E+02   1.634386E+02   5.219623E+02   5.219623E+02   5.219623E+02   5.219623E+02   1.352928E+02   1.352928E+02   1.352928E+02   9.953507E+01   9.953507E+01   8.397659E+01   8.397659E+01   5.081178E+01   5.081178E+01   6.661660E+01   1.847083E+02   2.121054E+02   2.121054E+02   7.349367E+01   6.743926E+01   1.634645E+02   1.100155E+02   1.335274E+02   1.601657E+02   1.223300E+02   5.262080E+01   1.606620E+01   2.223167E+01   2.074520E+01   1.437844E+01   1.512969E+01   4.545269E+01   1.427931E+02   1.643816E+02   5.429697E+01   1.154987E+02   2.139639E+01   3.872495E+01   1.167164E+02   2.100006E+02   4.046141E+02   2.290294E+02   2.690265E+02   1.343222E+02   2.139683E+02   1.999297E+02   2.018327E+02   5.350159E+01   1.414929E+02   7.010271E+01   1.370896E+02   3.592914E+01   5.677616E+01   1.110122E+02   1.204050E+02   8.004514E+01   6.377179E+01