# LPF package for  MODFLOW-2005, generated by Flopy.
        53    -1E+30         0  
         1
         0
   0.000000E+00
         0
         0
INTERNAL               1 (207E15.6) -1 #hk layer 1                    
   6.514516E-03   1.107941E-02   1.720014E-02   1.818965E-02   3.277529E-02   9.495426E-02   9.069784E-02   1.650176E-01   2.067705E-01   1.271185E-01   1.826953E-01   8.750478E-02   1.502090E-01   1.050184E-01   9.199248E-02   2.275106E-01   1.416535E-01   8.266908E-02   4.282350E-02   5.939275E-02   1.975636E-01   1.258046E-01   1.646672E-01   1.457223E-01   5.294387E-02   5.531644E-02   5.874795E-02   6.348656E-02   3.160134E-02   4.164943E-02   5.705605E-02   2.626925E-02   8.680998E-02   4.775373E-02   2.573928E-02   4.093116E-02   4.226661E-02   1.399565E-01   1.164804E-01   9.340061E-02   1.229662E-01   6.290193E-02   1.068279E-01   1.869879E-01   1.567193E-01   1.450660E-01   1.616050E-01   4.095746E-01   2.730943E-01   1.154984E-01   5.092688E-02   2.496066E-02   2.919636E-02   3.268412E-02   9.353497E-02   1.005593E-01   4.431866E-02   3.946314E-02   3.525522E-02   8.881269E-02   8.056003E-02   7.417124E-02   7.649630E-02   4.079458E-02   8.381479E-02   1.260677E-01   1.027267E-01   9.806159E-02   3.279527E-02   2.900906E-02   3.765836E-02   3.727170E-02   6.185519E-02   8.572976E-02   4.343512E-02   2.709453E-02   2.727180E-02   2.702759E-02   7.463536E-02   5.556072E-02   7.712658E-02   1.072341E-01   5.405938E-02   1.036188E-02   2.153935E-02   4.180183E-02   8.088115E-02   2.180748E-01   1.833106E-01   1.867727E-01   1.867727E-01   2.807054E-01   9.445579E-02   9.445579E-02   5.473991E-02   2.352235E-02   2.352235E-02   3.813247E-02   3.813247E-02   3.813247E-02   5.936956E-02   5.936956E-02   5.936956E-02   5.374254E-02   5.374254E-02   5.374254E-02   5.374254E-02   5.374254E-02   5.047259E-02   5.047259E-02   5.047259E-02   5.047259E-02   5.047259E-02   1.808066E-01   1.808066E-01   1.808066E-01   1.808066E-01   1.808066E-01   1.808066E-01   1.808066E-01   1.304242E-01   1.304242E-01   1.304242E-01   1.304242E-01   1.304242E-01   1.304242E-01   1.304242E-01   1.304242E-01   1.304242E-01   1.304242E-01   1.035106E-01   1.035106E-01   1.035106E-01   1.035106E-01   1.035106E-01   1.035106E-01   1.035106E-01   1.035106E-01   1.035106E-01   2.137630E-01   2.137630E-01   2.137630E-01   2.137630E-01   2.137630E-01   2.137630E-01   2.137630E-01   4.217499E-01   4.217499E-01   4.217499E-01   4.217499E-01   4.217499E-01   1.968590E-01   1.968590E-01   1.968590E-01   1.968590E-01   2.003739E-01   2.003739E-01   2.003739E-01   1.058039E-01   1.058039E-01   5.453974E-02   5.453974E-02   4.578408E-02   4.578408E-02   9.958961E-02   2.952443E-02   4.819592E-02   4.819592E-02   5.938344E-02   1.270658E-01   8.125843E-02   2.025853E-01   5.670484E-02   7.914653E-02   7.503899E-02   1.826810E-02   9.138951E-02   6.417581E-02   5.557322E-02   3.914801E-02   1.767388E-02   2.664386E-02   1.762588E-02   1.630558E-02   2.083739E-02   5.762561E-02   4.045446E-02   3.068874E-02   4.796574E-02   3.490657E-02   1.571535E-01   1.161774E-01   6.262832E-02   5.856073E-02   1.599314E-01   6.311329E-02   4.218989E-02   5.657928E-02   1.168587E-01   8.289044E-02   6.249774E-02   8.725797E-02   1.769702E-01   1.616067E-01   1.743696E-01   1.400657E-01   1.205499E-01
   1.270205E-02   8.155968E-03   9.167553E-03   1.897377E-02   6.995660E-03   8.337809E-02   7.180785E-02   8.362066E-02   2.684535E-01   1.513882E-01   1.930629E-01   1.108950E-01   9.529769E-02   2.602859E-01   2.932502E-01   1.504310E-01   2.497921E-01   1.265826E-01   9.655472E-02   5.916875E-02   7.772800E-02   4.309304E-01   8.488069E-02   2.329415E-01   1.965659E-01   1.255979E-01   9.454662E-02   7.760264E-02   3.640852E-02   7.594978E-02   9.204613E-02   4.041385E-02   2.009506E-02   5.996654E-02   5.245449E-02   3.322186E-02   6.732599E-02   7.485324E-02   1.352849E-01   5.048999E-02   8.600438E-02   3.877597E-02   6.805497E-02   2.528650E-01   1.417609E-01   1.327463E-01   2.550904E-01   3.275773E-01   1.131997E-01   7.931109E-02   3.833350E-02   3.687204E-02   5.491027E-02   3.383536E-02   4.151697E-02   3.426946E-02   2.354487E-02   2.651779E-02   2.344325E-02   4.283605E-02   1.383908E-01   8.982515E-02   1.480138E-01   5.648099E-02   2.000252E-01   1.886552E-01   7.042184E-02   5.166529E-02   5.777203E-02   7.581877E-02   4.580427E-02   4.187145E-02   5.289112E-02   4.902559E-02   6.657201E-02   3.555252E-02   4.217710E-02   2.559877E-02   6.204442E-02   4.519691E-02   4.450140E-02   5.255118E-02   2.263975E-02   6.802143E-03   1.471461E-02   6.052963E-02   4.966858E-02   1.578654E-01   1.042052E-01   3.300291E-01   3.300291E-01   1.395145E-01   1.001525E-01   1.001525E-01   5.891246E-02   2.130596E-02   2.130596E-02   4.026233E-02   4.026233E-02   4.026233E-02   3.022322E-02   3.022322E-02   3.022322E-02   5.464265E-02   5.464265E-02   5.464265E-02   5.464265E-02   5.464265E-02   1.002867E-01   1.002867E-01   1.002867E-01   1.002867E-01   1.002867E-01   1.547578E-01   1.547578E-01   1.547578E-01   1.547578E-01   1.547578E-01   1.547578E-01   1.547578E-01   1.725524E-01   1.725524E-01   1.725524E-01   1.725524E-01   1.725524E-01   1.725524E-01   1.725524E-01   1.725524E-01   1.725524E-01   1.725524E-01   1.031753E-01   1.031753E-01   1.031753E-01   1.031753E-01   1.031753E-01   1.031753E-01   1.031753E-01   1.031753E-01   1.031753E-01   2.800517E-01   2.800517E-01   2.800517E-01   2.800517E-01   2.800517E-01   2.800517E-01   2.800517E-01   1.188836E-01   1.188836E-01   1.188836E-01   1.188836E-01   1.188836E-01   1.395020E-01   1.395020E-01   1.395020E-01   1.395020E-01   1.399308E-01   1.399308E-01   1.399308E-01   1.271792E-01   1.271792E-01   5.046545E-02   5.046545E-02   4.208561E-02   4.208561E-02   9.379617E-02   5.290584E-02   5.598624E-02   5.598624E-02   8.275295E-02   5.138468E-02   1.432179E-01   1.363828E-01   8.419412E-02   2.489740E-01   8.760660E-02   4.512214E-02   4.394993E-02   4.591545E-02   3.335799E-02   1.680595E-02   1.755250E-02   1.743914E-02   8.087330E-03   1.628573E-02   2.765544E-02   3.881183E-02   3.274776E-02   3.194825E-02   4.032181E-02   5.158347E-02   8.534661E-02   1.131196E-01   1.225233E-01   6.874338E-02   1.816599E-01   1.682401E-01   9.887329E-02   5.727445E-02   8.953566E-02   8.714338E-02   3.676730E-02   6.278155E-02   5.801376E-02   1.402709E-01   8.854101E-02   1.245383E-01   2.012478E-01
   9.985005E-03   6.844319E-03   8.613495E-03   1.598388E-02   1.721972E-02   3.770491E-02   7.404025E-02   2.100192E-01   1.747083E-01   1.085957E-01   2.980613E-01   7.351480E-02   4.757052E-02   2.032163E-01   1.496796E-01   1.229103E-01   9.621093E-02   5.012559E-02   3.689962E-02   3.988367E-02   7.162552E-02   7.297180E-01   2.513608E-01   2.069936E-01   3.396888E-01   3.511782E-01   7.857554E-02   1.022435E-01   1.125017E-01   8.005775E-02   4.555535E-02   2.396761E-02   1.836455E-02   4.513656E-02   3.239802E-02   1.923512E-02   6.744499E-02   4.460688E-02   4.531590E-02   3.484667E-02   1.223873E-01   2.902731E-02   3.847485E-02   1.198252E-01   5.623644E-02   1.698036E-01   1.240224E-01   1.910259E-01   9.230107E-02   1.182457E-01   6.331767E-02   5.442221E-02   8.650871E-02   4.042802E-02   4.533875E-02   3.588887E-02   3.465478E-02   6.307702E-02   5.164682E-02   6.294888E-02   1.832194E-01   3.599609E-01   2.394485E-01   8.788350E-02   1.437905E-01   8.182070E-02   6.344105E-02   5.829363E-02   8.065625E-02   1.436374E-01   9.161819E-02   6.548452E-02   2.286102E-02   2.678191E-02   1.197198E-01   1.950062E-02   2.995672E-02   2.740245E-02   7.724373E-02   4.680049E-02   4.764344E-02   7.193826E-02   1.153336E-02   8.338688E-03   1.287550E-02   5.208665E-02   3.692155E-02   1.605538E-01   4.226197E-02   1.657483E-01   1.657483E-01   1.428138E-01   8.424890E-02   8.424890E-02   8.228601E-02   5.217017E-02   5.217017E-02   3.994681E-02   3.994681E-02   3.994681E-02   3.085281E-02   3.085281E-02   3.085281E-02   6.501333E-02   6.501333E-02   6.501333E-02   6.501333E-02   6.501333E-02   6.992969E-02   6.992969E-02   6.992969E-02   6.992969E-02   6.992969E-02   1.954437E-01   1.954437E-01   1.954437E-01   1.954437E-01   1.954437E-01   1.954437E-01   1.954437E-01   9.969696E-02   9.969696E-02   9.969696E-02   9.969696E-02   9.969696E-02   9.969696E-02   9.969696E-02   9.969696E-02   9.969696E-02   9.969696E-02   1.284480E-01   1.284480E-01   1.284480E-01   1.284480E-01   1.284480E-01   1.284480E-01   1.284480E-01   1.284480E-01   1.284480E-01   2.426246E-01   2.426246E-01   2.426246E-01   2.426246E-01   2.426246E-01   2.426246E-01   2.426246E-01   1.689312E-01   1.689312E-01   1.689312E-01   1.689312E-01   1.689312E-01   8.057255E-02   8.057255E-02   8.057255E-02   8.057255E-02   1.590011E-01   1.590011E-01   1.590011E-01   7.170419E-02   7.170419E-02   6.431692E-02   6.431692E-02   3.815508E-02   3.815508E-02   8.486977E-02   5.987467E-02   1.160338E-01   1.160338E-01   9.558113E-02   8.729830E-02   2.009996E-01   1.149576E-01   9.467758E-02   1.292488E-01   8.540615E-02   3.352415E-02   8.062375E-02   7.662470E-02   5.548088E-02   2.328479E-02   1.667426E-02   2.087251E-02   1.866722E-02   1.632711E-02   3.234791E-02   8.391799E-02   5.101525E-02   4.630587E-02   6.765983E-02   8.352912E-02   8.379311E-02   1.214726E-01   1.240500E-01   1.071206E-01   2.758982E-01   1.937760E-01   1.365561E-01   4.897676E-02   6.470627E-02   4.991282E-02   4.091040E-02   3.967387E-02   5.318049E-02   4.926850E-02   5.400855E-02   8.785795E-02   1.617852E-01
   2.230389E-02   4.309956E-02   1.517171E-02   9.826855E-03   4.050802E-02   3.906238E-02   9.657377E-02   1.063949E-01   2.358367E-01   1.542060E-01   1.860905E-01   5.352585E-02   1.486022E-01   7.150728E-02   1.048693E-01   1.025717E-01   5.905646E-02   2.740252E-02   1.999163E-02   1.972011E-02   7.100002E-02   3.771884E-01   1.518461E-01   2.025251E-01   2.564184E-01   1.533730E-01   1.339949E-01   5.569664E-02   5.072973E-02   4.080417E-02   3.471829E-02   1.563123E-02   3.097578E-02   3.650866E-02   3.655264E-02   1.588884E-02   1.618929E-01   7.631175E-02   3.899272E-02   1.046555E-01   9.449398E-02   3.327706E-02   6.210509E-02   1.420982E-01   9.657644E-02   1.947057E-01   3.491693E-01   1.855242E-01   8.508323E-02   9.106881E-02   6.254224E-02   4.021062E-02   1.038358E-01   3.175798E-02   6.388995E-02   1.992706E-02   2.273514E-02   1.144192E-02   2.939848E-02   7.313402E-02   2.290666E-01   2.469580E-01   2.269604E-01   1.113832E-01   8.032277E-02   8.678782E-02   1.151297E-01   1.182542E-01   1.004956E-01   2.186203E-01   9.992135E-02   5.183574E-02   2.426415E-02   2.510641E-02   7.518762E-02   3.635002E-02   3.847022E-02   7.331587E-02   1.047519E-01   5.376457E-02   6.697444E-02   4.704887E-02   2.075762E-02   1.170754E-02   1.898000E-02   1.311648E-01   2.908274E-02   1.889029E-01   4.819223E-02   7.690141E-02   7.690141E-02   1.228998E-01   1.589033E-01   1.589033E-01   2.109337E-01   5.896771E-02   5.896771E-02   3.691133E-02   3.691133E-02   3.691133E-02   5.745352E-02   5.745352E-02   5.745352E-02   3.736277E-02   3.736277E-02   3.736277E-02   3.736277E-02   3.736277E-02   7.479721E-02   7.479721E-02   7.479721E-02   7.479721E-02   7.479721E-02   1.891934E-01   1.891934E-01   1.891934E-01   1.891934E-01   1.891934E-01   1.891934E-01   1.891934E-01   1.621239E-01   1.621239E-01   1.621239E-01   1.621239E-01   1.621239E-01   1.621239E-01   1.621239E-01   1.621239E-01   1.621239E-01   1.621239E-01   1.347914E-01   1.347914E-01   1.347914E-01   1.347914E-01   1.347914E-01   1.347914E-01   1.347914E-01   1.347914E-01   1.347914E-01   1.462416E-01   1.462416E-01   1.462416E-01   1.462416E-01   1.462416E-01   1.462416E-01   1.462416E-01   2.377077E-01   2.377077E-01   2.377077E-01   2.377077E-01   2.377077E-01   1.250004E-01   1.250004E-01   1.250004E-01   1.250004E-01   1.270349E-01   1.270349E-01   1.270349E-01   7.145715E-02   7.145715E-02   9.887929E-02   9.887929E-02   4.773844E-02   4.773844E-02   7.639050E-02   8.610533E-02   1.049876E-01   1.049876E-01   1.336114E-01   1.075109E-01   2.371578E-01   1.547409E-01   1.146121E-01   1.099909E-01   1.030288E-01   7.726308E-02   1.780928E-01   1.082512E-01   3.306141E-02   1.828066E-02   2.919891E-02   3.072293E-02   2.568199E-02   1.427490E-02   9.852924E-02   7.529930E-02   2.887819E-02   5.044698E-02   5.573228E-02   4.773030E-02   6.291442E-02   6.219625E-02   1.082708E-01   8.625691E-02   2.772998E-01   2.387466E-01   1.712827E-01   8.329196E-02   3.555623E-02   2.705502E-02   6.102281E-02   2.846242E-02   3.711397E-02   3.183281E-02   3.032534E-02   6.319439E-02   1.574849E-01
   8.815827E-02   8.018118E-02   1.805298E-02   1.036002E-02   1.843805E-02   4.458222E-02   1.747733E-01   1.023894E-01   8.675210E-02   2.731799E-01   1.013769E-01   3.927590E-02   1.254614E-01   5.076822E-02   5.888980E-02   1.135159E-01   1.148644E-01   4.223823E-02   1.516712E-02   4.767248E-02   7.966738E-02   1.553572E-01   2.548988E-01   1.289343E-01   1.420378E-01   9.504592E-02   1.112054E-01   1.433533E-01   8.076502E-02   6.235099E-02   2.378068E-02   1.848038E-02   1.900296E-02   3.649551E-02   2.938646E-02   3.138255E-02   1.003742E-01   6.470057E-02   4.959782E-02   4.910352E-02   7.517881E-02   3.772570E-02   8.004804E-02   5.492651E-02   1.580518E-01   1.637964E-01   3.870890E-01   2.644163E-01   9.149014E-02   4.669001E-02   7.356410E-02   2.479661E-02   9.603231E-02   1.558715E-01   7.480554E-02   4.654276E-02   1.851952E-02   1.108964E-02   3.615491E-02   5.138863E-02   7.784878E-02   1.039990E-01   2.170403E-01   1.252077E-01   5.884806E-02   5.990319E-02   9.262802E-02   1.438972E-01   1.231789E-01   2.514448E-01   9.719583E-02   8.285373E-02   2.102531E-02   2.777829E-02   6.077784E-02   4.780587E-02   1.058664E-01   5.146488E-02   7.190728E-02   4.570347E-02   1.152498E-01   3.934593E-02   3.514601E-02   8.959452E-03   1.961349E-02   3.867308E-02   3.465784E-02   1.880750E-01   7.831553E-02   9.931039E-02   9.931039E-02   1.545068E-01   1.796494E-01   1.796494E-01   2.250395E-01   7.765922E-02   7.765922E-02   5.420813E-02   5.420813E-02   5.420813E-02   9.059352E-02   9.059352E-02   9.059352E-02   5.850979E-02   5.850979E-02   5.850979E-02   5.850979E-02   5.850979E-02   1.002370E-01   1.002370E-01   1.002370E-01   1.002370E-01   1.002370E-01   2.438250E-01   2.438250E-01   2.438250E-01   2.438250E-01   2.438250E-01   2.438250E-01   2.438250E-01   2.515191E-01   2.515191E-01   2.515191E-01   2.515191E-01   2.515191E-01   2.515191E-01   2.515191E-01   2.515191E-01   2.515191E-01   2.515191E-01   1.245021E-01   1.245021E-01   1.245021E-01   1.245021E-01   1.245021E-01   1.245021E-01   1.245021E-01   1.245021E-01   1.245021E-01   6.909604E-02   6.909604E-02   6.909604E-02   6.909604E-02   6.909604E-02   6.909604E-02   6.909604E-02   1.459753E-01   1.459753E-01   1.459753E-01   1.459753E-01   1.459753E-01   6.380912E-02   6.380912E-02   6.380912E-02   6.380912E-02   7.890063E-02   7.890063E-02   7.890063E-02   4.688887E-02   4.688887E-02   9.762341E-02   9.762341E-02   5.114065E-02   5.114065E-02   1.660476E-01   9.107944E-02   8.422621E-02   8.422621E-02   4.319689E-02   8.165508E-02   1.311283E-01   2.088488E-01   1.958856E-01   1.732457E-01   1.431793E-01   4.016118E-02   1.141930E-01   3.496246E-02   2.634426E-02   2.333809E-02   1.774275E-02   3.003885E-02   2.066999E-02   2.461874E-02   9.038131E-02   3.137651E-02   3.648348E-02   5.203746E-02   3.149064E-02   6.742291E-02   5.212739E-02   4.758382E-02   1.485082E-01   2.084782E-01   4.005733E-01   3.599560E-01   1.671372E-01   1.885862E-01   5.805905E-02   4.966155E-02   4.494098E-02   4.692743E-02   5.680905E-02   2.705744E-02   4.298525E-02   3.588028E-02   1.605396E-01
   4.915328E-02   6.745493E-02   1.585677E-02   6.694478E-03   2.233999E-02   7.811613E-02   1.875561E-01   8.091658E-02   1.029754E-01   1.892234E-01   6.669173E-02   3.882958E-02   6.935421E-02   3.728365E-02   1.328132E-02   6.806684E-02   8.790544E-02   7.690622E-02   1.521964E-02   7.659126E-02   1.130307E-01   7.744187E-02   2.435137E-01   1.242478E-01   1.977838E-01   9.138221E-02   1.671136E-01   3.028288E-01   1.140717E-01   7.536144E-02   2.641281E-02   1.260676E-02   2.742759E-02   7.539586E-02   4.842762E-02   8.446410E-02   5.995416E-02   5.352804E-02   4.500287E-02   4.017918E-02   8.364367E-02   3.771777E-02   4.276383E-02   3.981172E-02   1.932429E-01   3.414473E-01   4.166368E-01   2.572052E-01   5.707232E-02   5.087055E-02   1.348024E-01   8.012421E-02   1.243495E-01   2.091052E-01   6.722039E-02   3.457963E-02   2.112878E-02   3.137546E-02   3.722897E-02   4.081696E-02   7.625414E-02   7.009966E-02   1.128210E-01   1.964938E-01   7.188243E-02   6.147086E-02   2.349530E-01   1.376732E-01   1.875962E-01   1.755184E-01   8.310656E-02   9.573582E-02   4.369267E-02   3.039738E-02   2.757144E-02   6.996290E-02   8.509611E-02   7.464644E-02   9.301568E-02   5.154046E-02   9.960388E-02   4.760017E-02   2.175903E-02   8.474210E-03   1.152600E-02   4.176708E-02   4.332639E-02   9.009855E-02   5.632865E-02   1.916173E-01   1.916173E-01   1.154456E-01   8.255850E-02   8.255850E-02   2.356149E-01   1.292820E-01   1.292820E-01   6.125239E-02   6.125239E-02   6.125239E-02   7.338376E-02   7.338376E-02   7.338376E-02   6.655474E-02   6.655474E-02   6.655474E-02   6.655474E-02   6.655474E-02   1.153451E-01   1.153451E-01   1.153451E-01   1.153451E-01   1.153451E-01   2.146331E-01   2.146331E-01   2.146331E-01   2.146331E-01   2.146331E-01   2.146331E-01   2.146331E-01   2.459247E-01   2.459247E-01   2.459247E-01   2.459247E-01   2.459247E-01   2.459247E-01   2.459247E-01   2.459247E-01   2.459247E-01   2.459247E-01   1.232004E-01   1.232004E-01   1.232004E-01   1.232004E-01   1.232004E-01   1.232004E-01   1.232004E-01   1.232004E-01   1.232004E-01   1.449104E-01   1.449104E-01   1.449104E-01   1.449104E-01   1.449104E-01   1.449104E-01   1.449104E-01   1.064660E-01   1.064660E-01   1.064660E-01   1.064660E-01   1.064660E-01   5.428438E-02   5.428438E-02   5.428438E-02   5.428438E-02   1.247444E-01   1.247444E-01   1.247444E-01   5.047207E-02   5.047207E-02   7.543435E-02   7.543435E-02   6.565340E-02   6.565340E-02   1.196251E-01   1.076695E-01   8.393449E-02   8.393449E-02   3.730999E-02   8.750870E-02   1.883701E-01   1.219018E-01   5.185773E-01   5.765396E-01   1.168929E-01   5.797509E-02   1.260757E-01   5.758316E-02   2.760950E-02   3.361133E-02   3.243301E-02   6.143390E-02   3.413220E-02   3.038856E-02   1.400869E-01   4.268807E-02   2.515628E-02   2.171970E-02   7.013147E-02   3.785516E-02   7.592578E-02   6.197124E-02   2.224173E-01   9.679008E-02   3.324963E-01   3.461896E-01   9.077162E-02   1.974713E-01   2.779672E-02   3.299916E-02   3.996808E-02   6.727111E-02   6.354641E-02   2.618163E-02   2.786360E-02   2.825271E-02   6.881952E-02
   4.944497E-02   4.370090E-02   1.628218E-02   1.073811E-02   2.010761E-02   8.571279E-02   6.929389E-02   6.892677E-02   1.027191E-01   8.407620E-02   3.766486E-02   3.251474E-02   8.468253E-02   2.147092E-02   1.639208E-02   4.897604E-02   6.303059E-02   1.139167E-01   4.227241E-02   1.091227E-01   1.143433E-01   1.678435E-01   2.142023E-01   9.302551E-02   6.487712E-02   6.187601E-02   2.263533E-01   1.270836E-01   5.014116E-02   1.496816E-01   5.427261E-02   2.718734E-02   7.402650E-02   8.389580E-02   8.143100E-02   1.848328E-01   6.252267E-02   8.465321E-02   3.821234E-02   5.238425E-02   8.521593E-02   6.519664E-02   3.011313E-02   7.579231E-02   2.721247E-01   5.441563E-01   2.692290E-01   2.692987E-01   1.265946E-01   1.027041E-01   8.319743E-02   4.046907E-02   9.747276E-02   7.281213E-02   6.062310E-02   2.282065E-02   3.603961E-02   6.477243E-02   4.282706E-02   3.956057E-02   6.813829E-02   8.011933E-02   8.567546E-02   8.009687E-02   3.439705E-02   1.305777E-01   1.312155E-01   9.297956E-02   8.020031E-02   1.357592E-01   7.738784E-02   5.847441E-02   3.593862E-02   3.341561E-02   3.128901E-02   9.874568E-02   7.491399E-02   3.403209E-02   3.421694E-02   4.585455E-02   1.235136E-01   7.512211E-02   3.559411E-02   1.756505E-02   1.041276E-02   4.579858E-02   4.731496E-02   5.843217E-02   2.982575E-02   1.080976E-01   1.080976E-01   6.143902E-02   3.229170E-02   3.229170E-02   1.732830E-01   9.896681E-02   9.896681E-02   1.023397E-01   1.023397E-01   1.023397E-01   5.519823E-02   5.519823E-02   5.519823E-02   1.066395E-01   1.066395E-01   1.066395E-01   1.066395E-01   1.066395E-01   6.927048E-01   6.927048E-01   6.927048E-01   6.927048E-01   6.927048E-01   3.420358E-01   3.420358E-01   3.420358E-01   3.420358E-01   3.420358E-01   3.420358E-01   3.420358E-01   2.101338E-01   2.101338E-01   2.101338E-01   2.101338E-01   2.101338E-01   2.101338E-01   2.101338E-01   2.101338E-01   2.101338E-01   2.101338E-01   2.013320E-01   2.013320E-01   2.013320E-01   2.013320E-01   2.013320E-01   2.013320E-01   2.013320E-01   2.013320E-01   2.013320E-01   1.474714E-01   1.474714E-01   1.474714E-01   1.474714E-01   1.474714E-01   1.474714E-01   1.474714E-01   1.775111E-01   1.775111E-01   1.775111E-01   1.775111E-01   1.775111E-01   2.916174E-02   2.916174E-02   2.916174E-02   2.916174E-02   1.117609E-01   1.117609E-01   1.117609E-01   5.844255E-02   5.844255E-02   1.299485E-01   1.299485E-01   3.346965E-02   3.346965E-02   6.648384E-02   8.193853E-02   4.416414E-02   4.416414E-02   4.072625E-02   1.679641E-01   1.456399E-01   1.464326E-01   2.812675E-01   4.164517E-01   1.439932E-01   1.022590E-01   1.597081E-01   7.778988E-02   5.753015E-02   4.374020E-02   5.206954E-02   6.055119E-02   6.329035E-02   4.523589E-02   5.118598E-02   7.507215E-02   2.544628E-02   2.729727E-02   8.174460E-02   3.998833E-02   1.377929E-01   1.339864E-01   2.551093E-01   2.178829E-01   4.430465E-01   4.742137E-01   3.610543E-01   1.054418E-01   8.421274E-02   1.894892E-02   3.249315E-02   1.064681E-01   9.925940E-02   3.179943E-02   2.188690E-02   2.333815E-02   4.073864E-02
   4.262403E-02   4.135953E-02   6.692380E-03   1.062400E-02   3.055989E-02   8.596773E-02   7.362584E-02   5.043589E-02   5.777609E-02   9.501080E-02   1.279988E-02   3.126016E-02   3.969121E-02   1.812872E-02   5.127359E-02   3.016581E-02   1.037368E-01   9.699091E-02   8.876876E-02   8.783935E-02   1.639653E-01   1.974532E-01   1.913767E-01   7.563335E-02   3.266853E-02   2.360795E-02   7.160231E-02   1.160719E-01   1.220469E-01   1.057530E-01   7.747681E-02   1.070938E-01   1.599570E-01   1.615300E-01   1.364075E-01   1.625701E-01   3.900366E-02   1.130328E-01   7.198314E-02   3.709993E-02   6.904418E-02   4.323276E-02   1.539925E-02   5.543471E-02   1.142065E-01   3.137282E-01   1.440723E-01   5.429143E-01   1.480028E-01   7.363971E-02   8.549797E-02   3.883144E-02   5.771901E-02   1.297492E-01   2.185618E-02   2.097990E-02   2.871652E-02   3.875122E-02   6.124422E-02   5.071564E-02   6.139890E-02   1.055783E-01   7.833724E-02   1.076884E-01   2.383909E-01   1.263784E-01   7.667114E-02   4.465241E-02   4.390211E-02   7.827950E-02   9.881359E-02   9.271146E-02   7.979323E-02   3.444913E-02   2.930520E-02   3.862862E-02   5.640439E-02   3.307646E-02   1.958201E-02   4.648746E-02   6.210828E-02   5.295620E-02   3.756594E-02   1.030885E-02   1.213313E-02   3.543033E-02   5.118755E-02   8.376208E-02   3.382599E-02   7.654309E-02   7.654309E-02   4.987331E-02   1.881410E-02   1.881410E-02   9.150631E-02   7.932780E-02   7.932780E-02   8.343010E-02   8.343010E-02   8.343010E-02   9.633598E-02   9.633598E-02   9.633598E-02   2.305448E-01   2.305448E-01   2.305448E-01   2.305448E-01   2.305448E-01   3.241461E-01   3.241461E-01   3.241461E-01   3.241461E-01   3.241461E-01   2.164762E-01   2.164762E-01   2.164762E-01   2.164762E-01   2.164762E-01   2.164762E-01   2.164762E-01   2.253933E-01   2.253933E-01   2.253933E-01   2.253933E-01   2.253933E-01   2.253933E-01   2.253933E-01   2.253933E-01   2.253933E-01   2.253933E-01   1.435748E-01   1.435748E-01   1.435748E-01   1.435748E-01   1.435748E-01   1.435748E-01   1.435748E-01   1.435748E-01   1.435748E-01   1.878455E-01   1.878455E-01   1.878455E-01   1.878455E-01   1.878455E-01   1.878455E-01   1.878455E-01   1.439753E-01   1.439753E-01   1.439753E-01   1.439753E-01   1.439753E-01   5.717013E-02   5.717013E-02   5.717013E-02   5.717013E-02   1.453737E-01   1.453737E-01   1.453737E-01   1.370138E-01   1.370138E-01   1.259244E-01   1.259244E-01   2.836654E-02   2.836654E-02   1.183861E-01   7.213050E-02   6.159734E-02   6.159734E-02   4.994075E-02   3.593916E-02   1.505579E-01   1.519581E-01   2.742653E-01   3.708512E-01   1.765930E-01   5.426604E-02   6.699897E-02   7.003643E-02   5.709696E-02   5.635818E-02   6.261548E-02   8.756556E-02   9.132902E-02   3.809453E-02   3.038457E-02   4.884607E-02   7.130954E-02   2.300340E-02   4.812397E-02   2.646928E-02   4.421860E-02   6.216824E-02   1.628310E-01   4.249915E-01   4.528598E-01   6.152118E-01   2.139499E-01   1.032029E-01   4.182824E-02   4.011012E-02   3.564348E-02   6.569721E-02   1.218829E-01   6.575556E-02   1.929725E-02   2.537873E-02   3.040145E-02
   6.643060E-02   3.806679E-02   6.235246E-03   1.547276E-02   4.952229E-02   1.523829E-01   1.346547E-01   5.146614E-02   3.655078E-02   5.526823E-02   3.894318E-02   4.019466E-02   3.190518E-02   3.238079E-02   4.943315E-02   4.440374E-02   5.760432E-02   1.344908E-01   1.160602E-01   7.737792E-02   1.969072E-01   1.226058E-01   6.690884E-02   9.918436E-02   4.512177E-02   3.707050E-02   6.774838E-02   4.269004E-02   1.078226E-01   7.963552E-02   6.792772E-02   3.418618E-01   1.835734E-01   1.765002E-01   1.559031E-01   1.409544E-01   1.025907E-01   1.163803E-01   3.590347E-02   3.185511E-02   8.196479E-02   2.690522E-02   2.009018E-02   2.516255E-02   1.097835E-01   1.773010E-01   1.671731E-01   2.484603E-01   1.992256E-01   1.807119E-01   4.592017E-02   5.993993E-02   1.104285E-01   1.455013E-01   3.664006E-02   1.968218E-02   4.634007E-02   6.492870E-02   4.806544E-02   5.677971E-02   5.634582E-02   5.793313E-02   5.912600E-02   7.364784E-02   1.907000E-01   1.513347E-01   4.164622E-02   3.496227E-02   4.515379E-02   8.610775E-02   1.168751E-01   1.778217E-01   7.991083E-02   3.156006E-02   4.498666E-02   3.374115E-02   2.821773E-02   3.606362E-02   2.187014E-02   4.771167E-02   1.825076E-02   2.356841E-02   2.865078E-02   2.270841E-02   1.882511E-02   3.502115E-02   8.436281E-02   1.277046E-01   2.358294E-02   1.225771E-02   1.225771E-02   1.813406E-02   1.778121E-02   1.778121E-02   5.084698E-02   3.455597E-02   3.455597E-02   5.983234E-02   5.983234E-02   5.983234E-02   8.765437E-02   8.765437E-02   8.765437E-02   2.482954E-01   2.482954E-01   2.482954E-01   2.482954E-01   2.482954E-01   2.757488E-01   2.757488E-01   2.757488E-01   2.757488E-01   2.757488E-01   3.564125E-01   3.564125E-01   3.564125E-01   3.564125E-01   3.564125E-01   3.564125E-01   3.564125E-01   3.040739E-01   3.040739E-01   3.040739E-01   3.040739E-01   3.040739E-01   3.040739E-01   3.040739E-01   3.040739E-01   3.040739E-01   3.040739E-01   2.208921E-01   2.208921E-01   2.208921E-01   2.208921E-01   2.208921E-01   2.208921E-01   2.208921E-01   2.208921E-01   2.208921E-01   1.985466E-01   1.985466E-01   1.985466E-01   1.985466E-01   1.985466E-01   1.985466E-01   1.985466E-01   9.880807E-02   9.880807E-02   9.880807E-02   9.880807E-02   9.880807E-02   7.513935E-02   7.513935E-02   7.513935E-02   7.513935E-02   2.296384E-01   2.296384E-01   2.296384E-01   2.345904E-01   2.345904E-01   3.268420E-01   3.268420E-01   1.184084E-01   1.184084E-01   1.399367E-01   1.005258E-01   4.923181E-02   4.923181E-02   6.750710E-02   4.188601E-02   6.837785E-02   9.960324E-02   2.349162E-01   9.924596E-01   2.618950E-01   2.391765E-01   8.342569E-02   5.667522E-02   5.970943E-02   5.439061E-02   2.761947E-02   1.420176E-01   4.906780E-02   4.785076E-02   4.778639E-02   5.494249E-02   9.066997E-02   3.650219E-02   4.519437E-02   5.278438E-02   6.910761E-02   3.749513E-02   1.412868E-01   2.589090E-01   5.576576E-01   1.017492E+00   6.110206E-01   1.736821E-01   1.129101E-01   1.089245E-01   4.895940E-02   5.342849E-02   1.091278E-01   6.852667E-02   3.750245E-02   3.711366E-02   5.923432E-02