# LPF package for  MODFLOW-2005, generated by Flopy.
        53    -1E+30         0  
         1
         0
   0.000000E+00
         0
         0
INTERNAL               1 (207E15.6) -1 #hk layer 1                    
   9.684252E-02   1.631062E-01   1.880624E-01   1.678092E-01   9.871202E-02   1.409873E-01   1.557889E-01   1.661943E-01   1.298713E-01   1.064465E-01   4.525684E-02   3.998153E-02   1.496429E-02   2.407535E-02   1.690819E-02   6.621167E-02   7.775115E-02   6.086515E-02   2.415233E-02   1.804466E-02   2.288124E-02   3.170279E-02   4.012319E-02   3.111590E-02   2.537801E-02   2.336736E-02   5.967589E-02   7.211362E-02   3.517070E-02   8.027425E-02   9.264275E-02   9.301470E-02   2.083750E-01   3.066020E-01   1.807572E-01   1.520792E-01   4.581098E-01   1.855474E-01   9.658690E-02   4.484062E-02   1.994944E-01   1.854459E-01   1.607136E-01   4.912929E-01   3.521549E-01   3.615742E-01   4.918885E-01   2.062426E-01   1.455524E-01   3.753836E-01   1.174138E-01   4.116174E-02   3.013011E-02   2.330123E-02   1.721464E-02   1.328866E-01   1.062032E-01   5.233905E-02   5.780515E-02   8.092394E-02   1.593132E-01   2.026631E-01   3.314458E-01   8.546617E-02   4.252266E-02   7.392721E-02   4.439419E-02   7.540667E-02   4.750521E-02   6.466159E-02   1.902678E-01   3.046612E-02   6.481659E-02   3.343372E-02   3.500181E-02   3.369489E-02   5.784367E-02   1.648434E-01   6.509929E-02   1.753932E-02   4.647957E-02   1.888403E-01   1.734214E-01   1.147956E-01   2.877107E-01   2.068004E-01   2.935518E-02   4.306769E-02   2.901157E-02   5.076379E-02   5.076379E-02   5.273218E-02   9.382454E-02   9.382454E-02   9.238185E-02   5.378458E-02   5.378458E-02   8.097157E-02   8.097157E-02   8.097157E-02   5.620395E-02   5.620395E-02   5.620395E-02   3.585019E-02   3.585019E-02   3.585019E-02   3.585019E-02   3.585019E-02   4.228446E-02   4.228446E-02   4.228446E-02   4.228446E-02   4.228446E-02   1.186310E-01   1.186310E-01   1.186310E-01   1.186310E-01   1.186310E-01   1.186310E-01   1.186310E-01   1.290387E-01   1.290387E-01   1.290387E-01   1.290387E-01   1.290387E-01   1.290387E-01   1.290387E-01   1.290387E-01   1.290387E-01   1.290387E-01   1.351231E-01   1.351231E-01   1.351231E-01   1.351231E-01   1.351231E-01   1.351231E-01   1.351231E-01   1.351231E-01   1.351231E-01   1.683137E-01   1.683137E-01   1.683137E-01   1.683137E-01   1.683137E-01   1.683137E-01   1.683137E-01   6.653319E-02   6.653319E-02   6.653319E-02   6.653319E-02   6.653319E-02   7.679211E-02   7.679211E-02   7.679211E-02   7.679211E-02   5.341664E-02   5.341664E-02   5.341664E-02   1.326476E-01   1.326476E-01   1.600377E-01   1.600377E-01   9.848422E-02   9.848422E-02   8.360049E-02   7.328711E-02   1.241859E-01   1.241859E-01   8.070155E-02   4.572005E-02   9.604255E-02   9.809522E-02   1.229917E-01   3.149975E-01   1.316631E-01   3.690488E-02   4.241436E-02   8.885075E-02   6.813274E-02   2.329970E-01   3.581655E-01   2.805696E-01   2.580569E-01   3.096265E-02   1.758709E-02   3.140984E-02   4.918792E-02   2.570865E-02   2.380094E-02   7.240246E-02   3.080499E-02   4.002949E-02   6.846256E-02   7.746825E-02   4.861151E-02   1.206889E-02   1.972235E-02   4.649046E-02   1.342696E-01   1.227268E-01   1.756712E-01   1.489850E-01   1.310843E-01   9.315811E-02   2.965682E-01   7.123551E-02   6.330195E-02
   2.045371E-01   2.078219E-01   2.176850E-01   1.218261E-01   1.675326E-01   2.522205E-01   2.754311E-01   3.233036E-01   8.136230E-02   1.128039E-01   4.555022E-02   5.867674E-02   3.532897E-02   2.949444E-02   3.509058E-02   5.260408E-02   5.350110E-02   6.091851E-02   2.457423E-02   2.311453E-02   2.313932E-02   4.117994E-02   7.463037E-02   1.578761E-02   2.084463E-02   3.995137E-02   1.273143E-01   6.193444E-02   4.644246E-02   8.108608E-02   1.098263E-01   2.313034E-01   1.731313E-01   2.717330E-01   1.813739E-01   3.376051E-01   7.097072E-01   1.754992E-01   1.447718E-01   8.842787E-02   3.438700E-01   1.424842E-01   2.318289E-01   7.052954E-01   5.065172E-01   6.418154E-01   4.109886E-01   2.797299E-01   1.693978E-01   1.858658E-01   1.277663E-01   6.732674E-02   4.498029E-02   7.254487E-02   2.321606E-02   9.789279E-02   1.184679E-01   8.166910E-02   5.475312E-02   6.268816E-02   7.231434E-02   1.924243E-01   9.638338E-02   5.423209E-02   4.998844E-02   4.105231E-02   2.967918E-02   4.403421E-02   2.791229E-02   7.531413E-02   8.249793E-02   9.605090E-02   7.356802E-02   6.799979E-02   3.557938E-02   2.846115E-02   3.518403E-02   7.847437E-02   9.662054E-02   1.063695E-02   4.086821E-02   3.954152E-02   4.184550E-02   1.143042E-01   1.794361E-01   1.268887E-01   4.801659E-02   3.556893E-02   3.944234E-02   4.936070E-02   4.936070E-02   8.235537E-02   2.242856E-01   2.242856E-01   1.640725E-01   6.881161E-02   6.881161E-02   1.213306E-01   1.213306E-01   1.213306E-01   7.432026E-02   7.432026E-02   7.432026E-02   4.400297E-02   4.400297E-02   4.400297E-02   4.400297E-02   4.400297E-02   3.250732E-02   3.250732E-02   3.250732E-02   3.250732E-02   3.250732E-02   1.678480E-01   1.678480E-01   1.678480E-01   1.678480E-01   1.678480E-01   1.678480E-01   1.678480E-01   1.573308E-01   1.573308E-01   1.573308E-01   1.573308E-01   1.573308E-01   1.573308E-01   1.573308E-01   1.573308E-01   1.573308E-01   1.573308E-01   1.724186E-01   1.724186E-01   1.724186E-01   1.724186E-01   1.724186E-01   1.724186E-01   1.724186E-01   1.724186E-01   1.724186E-01   2.094266E-01   2.094266E-01   2.094266E-01   2.094266E-01   2.094266E-01   2.094266E-01   2.094266E-01   4.721762E-02   4.721762E-02   4.721762E-02   4.721762E-02   4.721762E-02   1.116371E-01   1.116371E-01   1.116371E-01   1.116371E-01   1.309948E-01   1.309948E-01   1.309948E-01   1.678172E-01   1.678172E-01   1.430372E-01   1.430372E-01   1.722843E-01   1.722843E-01   7.210245E-02   6.302658E-02   2.713853E-01   2.713853E-01   5.816334E-02   3.182682E-02   9.863763E-02   9.649374E-02   9.051602E-02   1.343130E-01   1.213069E-01   7.435270E-02   3.386814E-02   5.780523E-02   9.095836E-02   1.182539E-01   2.424094E-01   2.230691E-01   8.012088E-02   4.531490E-02   1.732249E-02   3.519503E-02   8.548776E-02   8.669316E-02   5.608791E-02   5.926478E-02   4.898350E-02   4.304706E-02   1.307426E-01   9.638148E-02   7.674644E-02   3.749175E-02   1.995580E-02   2.298557E-02   1.818001E-01   6.197954E-02   8.200864E-02   9.282151E-02   1.171599E-01   1.098381E-01   8.939114E-02   9.175418E-02   3.835307E-02
   2.604197E-01   4.891098E-01   2.239421E-01   1.533341E-01   1.386641E-01   2.680318E-01   1.720144E-01   2.617413E-01   5.120797E-02   1.391524E-01   5.386735E-02   5.371928E-02   4.047400E-02   7.072311E-02   6.024298E-02   8.215961E-02   4.899317E-02   1.186881E-01   5.638410E-02   2.337994E-02   7.605035E-02   4.327723E-02   4.344774E-02   2.404452E-02   1.739846E-02   2.887113E-02   8.033734E-02   6.071320E-02   6.932068E-02   9.877186E-02   8.147267E-02   2.920411E-01   3.010157E-01   1.914741E-01   1.129080E-01   2.721540E-01   1.844218E-01   2.136693E-01   2.161154E-01   1.477626E-01   2.255446E-01   1.694790E-01   1.538507E-01   7.300370E-01   4.809440E-01   6.482527E-01   4.887988E-01   1.828743E-01   3.308364E-01   3.365413E-01   1.285255E-01   8.475571E-02   3.551836E-02   1.949362E-02   4.079333E-02   8.198912E-02   1.750965E-01   2.496567E-01   1.338984E-01   1.131895E-01   1.126099E-01   9.736887E-02   7.696424E-02   1.409459E-01   4.242598E-02   2.180459E-02   2.131432E-02   2.398583E-02   2.186777E-02   5.011051E-02   1.275612E-01   9.916208E-02   8.360063E-02   1.190399E-01   1.993147E-02   2.784050E-02   3.185926E-02   9.738086E-02   9.903254E-02   3.303475E-02   3.917176E-02   1.442994E-02   2.599176E-02   8.685788E-02   1.766399E-01   5.944227E-02   7.734102E-02   3.051461E-02   2.703391E-02   6.443273E-02   6.443273E-02   1.197224E-01   1.485501E-01   1.485501E-01   1.334222E-01   7.858662E-02   7.858662E-02   3.039233E-01   3.039233E-01   3.039233E-01   5.081725E-02   5.081725E-02   5.081725E-02   6.475934E-02   6.475934E-02   6.475934E-02   6.475934E-02   6.475934E-02   1.933559E-02   1.933559E-02   1.933559E-02   1.933559E-02   1.933559E-02   1.615940E-01   1.615940E-01   1.615940E-01   1.615940E-01   1.615940E-01   1.615940E-01   1.615940E-01   2.015817E-01   2.015817E-01   2.015817E-01   2.015817E-01   2.015817E-01   2.015817E-01   2.015817E-01   2.015817E-01   2.015817E-01   2.015817E-01   1.382837E-01   1.382837E-01   1.382837E-01   1.382837E-01   1.382837E-01   1.382837E-01   1.382837E-01   1.382837E-01   1.382837E-01   2.719079E-01   2.719079E-01   2.719079E-01   2.719079E-01   2.719079E-01   2.719079E-01   2.719079E-01   5.190483E-02   5.190483E-02   5.190483E-02   5.190483E-02   5.190483E-02   9.636118E-02   9.636118E-02   9.636118E-02   9.636118E-02   1.001618E-01   1.001618E-01   1.001618E-01   1.763427E-01   1.763427E-01   8.630964E-02   8.630964E-02   1.785372E-01   1.785372E-01   1.104189E-01   1.916966E-01   6.027924E-01   6.027924E-01   7.088561E-02   7.639913E-02   5.205653E-02   4.379418E-02   1.047932E-01   1.474829E-01   6.691001E-02   2.710966E-02   4.781487E-02   9.042497E-02   1.086605E-01   1.803292E-01   1.362324E-01   7.426922E-02   3.978001E-02   2.989259E-02   3.891550E-02   3.681396E-02   5.379594E-02   1.462934E-01   7.484576E-02   5.789458E-02   1.028079E-01   7.940484E-02   1.728148E-01   8.654591E-02   1.289450E-01   9.174306E-02   1.846959E-02   2.836624E-02   1.033271E-01   5.489339E-02   2.294182E-01   9.008244E-02   8.405606E-02   8.617281E-02   7.907730E-02   5.858924E-02   4.623812E-02
   1.725438E-01   2.214187E-01   2.000660E-01   1.188594E-01   2.455250E-01   2.701029E-01   2.922865E-01   1.212194E-01   1.860061E-01   9.093992E-02   1.508206E-01   9.378543E-02   5.490670E-02   6.354130E-02   5.759628E-02   5.641712E-02   5.627294E-02   1.925748E-01   1.047582E-01   6.842614E-02   1.083100E-01   7.441814E-02   4.055039E-02   1.901949E-02   2.181468E-02   4.345639E-02   1.019117E-01   4.600454E-02   8.970366E-02   1.060320E-01   1.058109E-01   2.901321E-01   2.773906E-01   1.708376E-01   6.067710E-02   1.944151E-01   1.302918E-01   1.568026E-01   1.585351E-01   1.056036E-01   2.072420E-01   4.318017E-01   2.908542E-01   2.923622E-01   5.271382E-01   8.874788E-01   4.962599E-01   2.914773E-01   8.527257E-02   1.888242E-01   2.140198E-01   9.401505E-02   3.673575E-02   3.656593E-02   8.462984E-02   5.195196E-02   1.109385E-01   1.795706E-01   2.665181E-01   2.247091E-01   1.753670E-01   9.880362E-02   8.180645E-02   1.123191E-01   4.228956E-02   1.525522E-02   2.230857E-02   1.717974E-02   1.730459E-02   2.645418E-02   1.098325E-01   7.593869E-02   1.026549E-01   8.977907E-02   1.860486E-02   2.706321E-02   2.269231E-02   7.904048E-02   5.449488E-02   3.512920E-02   4.991346E-02   1.052368E-02   2.361160E-02   5.184676E-02   1.524010E-01   9.959964E-02   8.752874E-02   6.053404E-02   3.341641E-02   1.630236E-01   1.630236E-01   8.334880E-02   3.148758E-01   3.148758E-01   2.698704E-01   2.185406E-01   2.185406E-01   1.353825E-01   1.353825E-01   1.353825E-01   4.227750E-02   4.227750E-02   4.227750E-02   1.780523E-01   1.780523E-01   1.780523E-01   1.780523E-01   1.780523E-01   4.631367E-02   4.631367E-02   4.631367E-02   4.631367E-02   4.631367E-02   1.850748E-01   1.850748E-01   1.850748E-01   1.850748E-01   1.850748E-01   1.850748E-01   1.850748E-01   2.648074E-01   2.648074E-01   2.648074E-01   2.648074E-01   2.648074E-01   2.648074E-01   2.648074E-01   2.648074E-01   2.648074E-01   2.648074E-01   1.012568E-01   1.012568E-01   1.012568E-01   1.012568E-01   1.012568E-01   1.012568E-01   1.012568E-01   1.012568E-01   1.012568E-01   1.911628E-01   1.911628E-01   1.911628E-01   1.911628E-01   1.911628E-01   1.911628E-01   1.911628E-01   1.113429E-01   1.113429E-01   1.113429E-01   1.113429E-01   1.113429E-01   9.211186E-02   9.211186E-02   9.211186E-02   9.211186E-02   9.663946E-02   9.663946E-02   9.663946E-02   1.758790E-01   1.758790E-01   9.199388E-02   9.199388E-02   1.306677E-01   1.306677E-01   2.314620E-01   2.828362E-01   2.770400E-01   2.770400E-01   5.456502E-02   7.187176E-02   5.065884E-02   3.296110E-02   8.303200E-02   1.304190E-01   2.264133E-01   7.409307E-02   6.454716E-02   9.815498E-02   4.469433E-02   1.213799E-01   8.513111E-02   3.111316E-02   5.113839E-02   8.595873E-02   2.290517E-02   6.201852E-02   3.270585E-02   1.001751E-01   2.210878E-01   1.239578E-01   1.075001E-01   9.511375E-02   1.282195E-01   1.198308E-01   2.065174E-01   1.665761E-01   2.196554E-02   3.453482E-02   2.070354E-01   1.214644E-01   1.577437E-01   7.395011E-02   8.958724E-02   8.908821E-02   1.634872E-01   8.235329E-02   3.572693E-02
   2.072512E-01   1.148259E-01   1.317901E-01   9.370985E-02   2.540033E-01   4.454252E-01   2.240875E-01   7.721860E-02   1.528914E-01   9.554526E-02   2.853905E-01   1.633430E-01   6.234738E-02   4.217315E-02   5.804376E-02   4.021863E-02   9.864782E-02   2.465424E-01   2.692977E-01   9.059566E-02   1.093299E-01   6.254870E-02   4.959390E-02   1.966025E-02   3.494743E-02   4.731800E-02   7.668187E-02   3.731496E-02   1.101292E-01   5.910082E-02   8.485033E-02   2.068479E-01   5.088345E-01   3.245337E-01   7.628156E-02   9.401368E-02   1.753524E-01   1.800423E-01   1.895252E-01   1.416838E-01   2.411940E-01   5.201911E-01   2.380540E-01   1.585823E-01   4.209613E-01   5.110348E-01   5.332894E-01   2.540309E-01   1.137237E-01   9.826955E-02   1.239935E-01   7.029357E-02   5.164878E-02   5.125305E-02   7.101513E-02   3.631719E-02   7.950973E-02   1.751961E-01   1.545000E-01   1.557919E-01   9.093451E-02   1.402802E-01   3.876473E-02   5.987450E-02   2.312787E-02   7.616864E-03   1.418960E-02   1.396572E-02   1.924424E-02   4.884180E-02   1.803613E-01   6.100942E-02   1.088771E-01   7.457168E-02   2.233723E-02   2.899490E-02   2.655916E-02   6.357325E-02   4.669427E-02   2.898090E-02   5.283602E-02   1.170370E-02   1.856047E-02   6.908762E-02   1.745506E-01   1.325866E-01   6.797886E-02   1.456477E-01   7.544430E-02   2.878270E-01   2.878270E-01   2.009059E-01   2.116232E-01   2.116232E-01   1.710725E-01   8.068371E-02   8.068371E-02   7.566235E-02   7.566235E-02   7.566235E-02   4.232325E-02   4.232325E-02   4.232325E-02   1.081860E-01   1.081860E-01   1.081860E-01   1.081860E-01   1.081860E-01   7.181407E-02   7.181407E-02   7.181407E-02   7.181407E-02   7.181407E-02   1.155078E-01   1.155078E-01   1.155078E-01   1.155078E-01   1.155078E-01   1.155078E-01   1.155078E-01   2.714088E-01   2.714088E-01   2.714088E-01   2.714088E-01   2.714088E-01   2.714088E-01   2.714088E-01   2.714088E-01   2.714088E-01   2.714088E-01   3.082529E-01   3.082529E-01   3.082529E-01   3.082529E-01   3.082529E-01   3.082529E-01   3.082529E-01   3.082529E-01   3.082529E-01   5.406528E-01   5.406528E-01   5.406528E-01   5.406528E-01   5.406528E-01   5.406528E-01   5.406528E-01   2.074838E-01   2.074838E-01   2.074838E-01   2.074838E-01   2.074838E-01   1.427256E-01   1.427256E-01   1.427256E-01   1.427256E-01   1.750087E-01   1.750087E-01   1.750087E-01   1.758224E-01   1.758224E-01   1.702253E-01   1.702253E-01   1.948691E-01   1.948691E-01   1.768533E-01   4.700004E-01   1.320094E-01   1.320094E-01   1.291611E-01   8.185851E-02   2.862849E-02   2.004978E-02   4.532536E-02   8.731342E-02   1.378115E-01   5.293605E-02   5.147233E-02   8.103564E-02   6.200289E-02   1.025647E-01   3.741190E-02   4.781584E-02   4.419296E-02   4.977351E-02   7.024243E-02   1.197499E-01   6.848484E-02   1.010829E-01   1.686440E-01   1.714972E-01   1.345640E-01   6.608533E-02   1.667735E-01   7.625375E-02   1.253682E-01   8.949193E-02   6.695139E-02   7.251034E-02   8.867667E-02   6.696907E-02   1.155870E-01   5.559134E-02   8.684712E-02   8.736655E-02   1.231076E-01   1.911930E-01   3.005552E-02
   6.291003E-01   3.381488E-01   1.093633E-01   5.531166E-02   4.018836E-02   2.266493E-01   3.188431E-01   1.471635E-01   2.885314E-01   8.464486E-02   1.129726E-01   1.222954E-01   7.529236E-02   4.616363E-02   3.941477E-02   5.059914E-02   1.111994E-01   2.076821E-01   2.026211E-01   1.120653E-01   1.653739E-01   9.401993E-02   2.745419E-02   3.327907E-02   2.457880E-02   3.728622E-02   1.230469E-01   6.312822E-02   1.263434E-01   1.621297E-01   3.078822E-01   1.567659E-01   3.678643E-01   1.611426E-01   4.238674E-02   8.825490E-02   2.213857E-01   9.559657E-02   1.790853E-01   1.815252E-01   3.563297E-01   3.326110E-01   5.090801E-01   2.075388E-01   1.888175E-01   4.241926E-01   2.855834E-01   1.364949E-01   1.304577E-01   6.243212E-02   5.285182E-02   1.705534E-01   7.449467E-02   3.051846E-02   2.685809E-02   1.430664E-02   5.788567E-02   1.382694E-01   1.324593E-01   1.631854E-01   1.109368E-01   7.198031E-02   2.422622E-02   4.784794E-02   1.713627E-02   6.628717E-03   1.698518E-02   8.979397E-03   1.276045E-02   2.794096E-02   1.014305E-01   1.203824E-01   6.303027E-02   7.222185E-02   4.146590E-02   2.381573E-02   2.060535E-02   4.026018E-02   4.859639E-02   2.547201E-02   3.997035E-02   1.225527E-02   7.783537E-03   8.473600E-02   8.508075E-02   1.035260E-01   6.888063E-02   1.483741E-01   1.047813E-01   2.088656E-01   2.088656E-01   3.629519E-01   2.006819E-01   2.006819E-01   9.123662E-02   7.840385E-02   7.840385E-02   5.070189E-02   5.070189E-02   5.070189E-02   6.031884E-02   6.031884E-02   6.031884E-02   1.488403E-01   1.488403E-01   1.488403E-01   1.488403E-01   1.488403E-01   6.804592E-02   6.804592E-02   6.804592E-02   6.804592E-02   6.804592E-02   1.705565E-01   1.705565E-01   1.705565E-01   1.705565E-01   1.705565E-01   1.705565E-01   1.705565E-01   2.199376E-01   2.199376E-01   2.199376E-01   2.199376E-01   2.199376E-01   2.199376E-01   2.199376E-01   2.199376E-01   2.199376E-01   2.199376E-01   1.847210E-01   1.847210E-01   1.847210E-01   1.847210E-01   1.847210E-01   1.847210E-01   1.847210E-01   1.847210E-01   1.847210E-01   3.510564E-01   3.510564E-01   3.510564E-01   3.510564E-01   3.510564E-01   3.510564E-01   3.510564E-01   1.885660E-01   1.885660E-01   1.885660E-01   1.885660E-01   1.885660E-01   3.189487E-01   3.189487E-01   3.189487E-01   3.189487E-01   1.835282E-01   1.835282E-01   1.835282E-01   2.254228E-01   2.254228E-01   2.527275E-01   2.527275E-01   5.777084E-01   5.777084E-01   1.310514E-01   2.325795E-01   1.688579E-01   1.688579E-01   1.316006E-01   9.916088E-02   5.486809E-02   2.988349E-02   4.433310E-02   7.180386E-02   9.806973E-02   5.401291E-02   6.076366E-02   1.231680E-01   5.477713E-02   8.015721E-02   4.934113E-02   1.440397E-01   5.871221E-02   5.940924E-02   5.538344E-02   5.999456E-02   1.123841E-01   4.564602E-02   2.125352E-01   1.209736E-01   1.894237E-01   7.058609E-02   1.422010E-01   2.176455E-01   5.741056E-02   5.305081E-02   2.087743E-01   6.129242E-02   5.134212E-02   9.931706E-02   9.629121E-02   3.305792E-02   5.227287E-02   7.629968E-02   1.828315E-01   1.278930E-01   3.808427E-02
   4.459283E-01   4.574224E-01   1.314031E-01   4.084212E-02   4.114214E-02   2.566224E-01   1.727839E-01   2.123599E-01   2.192129E-01   1.531621E-01   4.690913E-02   9.079944E-02   4.500559E-02   2.519619E-02   2.808478E-02   5.531584E-02   1.129344E-01   1.799318E-01   1.242294E-01   1.161937E-01   1.472870E-01   8.713709E-02   8.961845E-02   9.359910E-02   3.641382E-02   3.832868E-02   1.662636E-01   8.540892E-02   1.609458E-01   1.753413E-01   2.200490E-01   1.111364E-01   2.750148E-01   1.689526E-01   2.945278E-02   7.836699E-02   1.440671E-01   1.508880E-01   4.077170E-01   2.134656E-01   4.400278E-01   3.758287E-01   4.895135E-01   2.179800E-01   2.533215E-01   5.123371E-01   2.359491E-01   8.919846E-02   9.864274E-02   5.696405E-02   9.160350E-02   1.090723E-01   6.177405E-02   2.282329E-02   1.962124E-02   1.607396E-02   9.700443E-02   6.843446E-02   1.568379E-01   1.388505E-01   1.665170E-01   8.070730E-02   3.288876E-02   3.825391E-02   1.102152E-02   7.075716E-03   1.362849E-02   1.252763E-02   1.760374E-02   2.559904E-02   5.623811E-02   7.689285E-02   9.145884E-02   5.528663E-02   4.860626E-02   2.172586E-02   2.258580E-02   5.092403E-02   8.523969E-02   5.460759E-02   7.399062E-02   3.277289E-02   2.043813E-02   4.384455E-02   6.895927E-02   1.111337E-01   8.647955E-02   1.766486E-01   9.686942E-02   1.330757E-01   1.330757E-01   2.317522E-01   4.658779E-02   4.658779E-02   6.832802E-02   8.133169E-02   8.133169E-02   3.713873E-02   3.713873E-02   3.713873E-02   2.891342E-02   2.891342E-02   2.891342E-02   5.660313E-02   5.660313E-02   5.660313E-02   5.660313E-02   5.660313E-02   5.062977E-02   5.062977E-02   5.062977E-02   5.062977E-02   5.062977E-02   8.731169E-02   8.731169E-02   8.731169E-02   8.731169E-02   8.731169E-02   8.731169E-02   8.731169E-02   2.099691E-01   2.099691E-01   2.099691E-01   2.099691E-01   2.099691E-01   2.099691E-01   2.099691E-01   2.099691E-01   2.099691E-01   2.099691E-01   2.929581E-01   2.929581E-01   2.929581E-01   2.929581E-01   2.929581E-01   2.929581E-01   2.929581E-01   2.929581E-01   2.929581E-01   4.016845E-01   4.016845E-01   4.016845E-01   4.016845E-01   4.016845E-01   4.016845E-01   4.016845E-01   3.981563E-01   3.981563E-01   3.981563E-01   3.981563E-01   3.981563E-01   3.691060E-01   3.691060E-01   3.691060E-01   3.691060E-01   1.482912E-01   1.482912E-01   1.482912E-01   2.388673E-01   2.388673E-01   7.700626E-02   7.700626E-02   1.843324E-01   1.843324E-01   9.154150E-02   3.973798E-01   2.085309E-01   2.085309E-01   2.014995E-01   9.565656E-02   4.309227E-02   1.227043E-02   2.420605E-02   6.974377E-02   1.301720E-01   4.989228E-02   1.130646E-01   1.273264E-01   4.896499E-02   7.023858E-02   4.667623E-02   1.053299E-01   7.342513E-02   7.489767E-02   7.569179E-02   7.154266E-02   9.366749E-02   4.869560E-02   1.238315E-01   1.111567E-01   1.085712E-01   9.995230E-02   1.684992E-01   1.500674E-01   1.285048E-01   6.286010E-02   2.929155E-01   5.425053E-02   4.842528E-02   4.879081E-02   9.880093E-02   2.972014E-02   9.117025E-02   3.699259E-02   9.987204E-02   8.616336E-02   5.715829E-02
   3.582349E-01   1.206627E+00   6.650484E-02   6.176714E-02   5.005733E-02   1.057286E-01   6.308963E-02   9.959144E-02   1.645088E-01   4.854766E-02   5.083916E-02   2.928321E-02   3.646236E-02   3.248591E-02   4.629908E-02   7.291158E-02   3.847295E-02   1.176299E-01   3.956382E-02   1.317722E-01   1.637744E-01   1.005771E-01   9.686358E-02   9.144690E-02   3.838318E-02   6.834665E-02   2.174244E-01   1.559033E-01   1.403134E-01   1.016795E-01   1.378151E-01   2.055304E-01   2.845385E-01   1.496088E-01   5.608866E-02   1.165648E-01   1.542887E-01   1.290070E-01   2.191523E-01   4.537683E-01   1.786598E-01   2.037327E-01   8.242081E-01   3.397559E-01   4.767931E-01   2.242966E-01   2.234237E-01   5.825339E-02   1.357378E-01   5.264880E-02   4.075366E-02   8.637681E-02   7.721453E-02   1.856267E-02   1.120337E-02   2.394715E-02   8.961410E-02   5.492813E-02   1.296351E-01   1.146051E-01   1.998037E-01   5.544269E-02   3.657683E-02   7.608678E-02   1.500730E-02   1.035454E-02   2.200314E-02   2.155742E-02   2.148532E-02   2.512802E-02   6.265216E-02   9.298556E-02   9.767301E-02   1.125415E-01   2.929948E-02   4.427636E-02   7.710048E-02   6.408986E-02   1.347967E-01   8.284609E-02   7.313805E-02   4.381645E-02   1.227511E-01   2.900408E-02   3.909491E-02   9.497709E-02   4.409732E-02   6.926711E-02   3.934712E-02   5.479270E-02   5.479270E-02   2.287776E-01   6.368344E-02   6.368344E-02   5.256737E-02   9.988785E-02   9.988785E-02   4.924755E-02   4.924755E-02   4.924755E-02   2.088165E-02   2.088165E-02   2.088165E-02   1.296429E-02   1.296429E-02   1.296429E-02   1.296429E-02   1.296429E-02   1.191702E-02   1.191702E-02   1.191702E-02   1.191702E-02   1.191702E-02   6.747189E-02   6.747189E-02   6.747189E-02   6.747189E-02   6.747189E-02   6.747189E-02   6.747189E-02   1.607470E-01   1.607470E-01   1.607470E-01   1.607470E-01   1.607470E-01   1.607470E-01   1.607470E-01   1.607470E-01   1.607470E-01   1.607470E-01   2.729052E-01   2.729052E-01   2.729052E-01   2.729052E-01   2.729052E-01   2.729052E-01   2.729052E-01   2.729052E-01   2.729052E-01   6.039006E-01   6.039006E-01   6.039006E-01   6.039006E-01   6.039006E-01   6.039006E-01   6.039006E-01   4.786578E-01   4.786578E-01   4.786578E-01   4.786578E-01   4.786578E-01   1.795463E-01   1.795463E-01   1.795463E-01   1.795463E-01   6.186363E-02   6.186363E-02   6.186363E-02   3.282923E-01   3.282923E-01   9.596001E-02   9.596001E-02   1.547667E-01   1.547667E-01   8.823757E-02   2.547403E-01   2.824621E-01   2.824621E-01   1.596954E-01   1.667086E-01   4.706177E-02   1.230066E-02   1.414782E-02   3.224648E-02   8.290063E-02   1.027219E-01   8.039454E-02   9.586637E-02   7.394288E-02   8.347457E-02   5.753734E-02   1.278783E-01   5.231166E-02   7.939826E-02   1.598219E-01   7.783742E-02   7.029638E-02   4.258290E-02   5.059976E-02   4.993793E-02   7.276084E-02   1.032870E-01   8.585204E-02   5.414137E-02   1.846599E-01   4.877298E-02   1.511008E-01   6.626836E-02   6.503339E-02   7.520571E-02   4.241332E-02   2.705996E-02   4.739692E-02   2.969983E-02   4.369834E-02   5.266742E-02   3.897227E-02
   4.012564E-01   5.147501E-01   6.804717E-02   3.860792E-02   6.120106E-02   5.501668E-02   4.628448E-02   2.545002E-01   1.385667E-01   3.576604E-02   4.545852E-02   3.343971E-02   2.474130E-02   2.053094E-02   5.583587E-02   7.642660E-02   6.470702E-02   1.502915E-01   1.313152E-01   2.251119E-01   3.573735E-01   2.381651E-01   2.100519E-01   2.521203E-01   7.705896E-02   1.209468E-01   5.006555E-01   2.040580E-01   3.091704E-01   1.079892E-01   5.422434E-01   4.243335E-01   2.362676E-01   1.212145E-01   8.150289E-02   1.373386E-01   2.210126E-01   1.337199E-01   1.593181E-01   2.166405E-01   3.519995E-01   1.365183E-01   3.520101E-01   6.394368E-01   4.973258E-01   2.308331E-01   1.534992E-01   1.009608E-01   8.920453E-02   8.603361E-02   4.730154E-02   7.766656E-02   9.190065E-02   4.560517E-02   1.714757E-02   6.133333E-02   4.458092E-02   3.790020E-02   7.902644E-02   1.138481E-01   2.000713E-01   9.996327E-02   8.399837E-02   6.561978E-02   1.394893E-02   1.735695E-02   1.296453E-02   2.538768E-02   2.347495E-02   2.470586E-02   5.915145E-02   9.416579E-02   4.713915E-02   3.251248E-02   2.707157E-02   5.686855E-02   4.759752E-02   4.358170E-02   1.325638E-01   9.450984E-02   1.181173E-01   1.355007E-01   1.059434E-01   3.208460E-02   5.872647E-02   1.214198E-01   3.587582E-02   4.700962E-02   5.775786E-02   1.141772E-01   1.141772E-01   1.625057E-01   1.012601E-01   1.012601E-01   3.819383E-02   6.729671E-02   6.729671E-02   3.667679E-02   3.667679E-02   3.667679E-02   2.255445E-02   2.255445E-02   2.255445E-02   1.218810E-02   1.218810E-02   1.218810E-02   1.218810E-02   1.218810E-02   7.864806E-03   7.864806E-03   7.864806E-03   7.864806E-03   7.864806E-03   3.462892E-02   3.462892E-02   3.462892E-02   3.462892E-02   3.462892E-02   3.462892E-02   3.462892E-02   1.300886E-01   1.300886E-01   1.300886E-01   1.300886E-01   1.300886E-01   1.300886E-01   1.300886E-01   1.300886E-01   1.300886E-01   1.300886E-01   1.503068E-01   1.503068E-01   1.503068E-01   1.503068E-01   1.503068E-01   1.503068E-01   1.503068E-01   1.503068E-01   1.503068E-01   2.415991E-01   2.415991E-01   2.415991E-01   2.415991E-01   2.415991E-01   2.415991E-01   2.415991E-01   4.084638E-01   4.084638E-01   4.084638E-01   4.084638E-01   4.084638E-01   7.300550E-02   7.300550E-02   7.300550E-02   7.300550E-02   1.330532E-01   1.330532E-01   1.330532E-01   1.059068E-01   1.059068E-01   8.445663E-02   8.445663E-02   1.226787E-01   1.226787E-01   2.081415E-01   2.369674E-01   2.698447E-01   2.698447E-01   2.842994E-01   2.691746E-01   5.143731E-02   1.587406E-02   3.768372E-02   7.427089E-02   1.576714E-01   9.247646E-02   9.101307E-02   1.001439E-01   1.872564E-01   1.433302E-01   6.260378E-02   8.756587E-02   6.751136E-02   9.448696E-02   1.480660E-01   8.853304E-02   6.145078E-02   6.913781E-02   9.232057E-02   3.925585E-02   1.024122E-01   1.187580E-01   1.500794E-01   8.507218E-02   1.322943E-01   8.790253E-02   1.124396E-01   3.579515E-02   4.228418E-02   6.418532E-02   8.216659E-02   4.750589E-02   3.277474E-02   2.172264E-02   2.627597E-02   2.052619E-02   2.000283E-02