# WEL package for  MODFLOW-2005, generated by Flopy.
         7         0 
         7         0 # stress period 1
         1        80       130         -1000.0
         1       108       101             0.0
         1        48        96             0.0
         1        75        91             0.0
         1        66       162             0.0
         1        44       152             0.0
         1       101       159             0.0
         7         0 # stress period 2
         1        80       130         -1000.0
         1       108       101            24.0
         1        48        96            24.0
         1        75        91            24.0
         1        66       162            24.0
         1        44       152            24.0
         1       101       159            24.0
         7         0 # stress period 3
         1        80       130         -1000.0
         1       108       101             0.0
         1        48        96             0.0
         1        75        91             0.0
         1        66       162             0.0
         1        44       152             0.0
         1       101       159             0.0
