# LPF package for  MODFLOW-2005, generated by Flopy.
        53    -1E+30         0  
         1
         0
   0.000000E+00
         0
         0
INTERNAL               1 (207E15.6) -1 #hk layer 1                    
   2.795484E+02   3.695849E+02   4.066887E+02   4.841020E+02   5.333845E+02   3.265659E+02   2.506015E+02   1.841604E+02   3.747490E+01   3.600984E+01   3.484060E+01   3.774567E+01   3.738199E+01   5.815967E+01   3.164422E+01   2.273051E+01   2.920256E+01   4.476128E+01   3.823402E+01   2.153249E+01   3.843552E+01   6.744883E+01   3.685576E+01   9.412970E+01   5.883093E+01   5.985068E+01   4.920656E+01   1.443189E+02   8.473251E+01   1.334684E+02   1.938081E+02   1.700875E+02   6.161770E+01   4.363600E+01   2.531857E+01   4.109798E+01   4.774088E+01   5.473785E+01   4.247200E+01   3.489952E+01   7.570652E+01   1.981084E+02   3.560516E+02   1.536726E+02   2.196385E+02   1.371311E+02   1.369171E+02   2.008196E+01   1.904284E+01   8.203401E+01   6.814792E+01   2.229131E+01   2.738799E+01   3.064447E+01   2.134756E+01   2.725631E+01   7.815018E+01   6.070726E+01   8.877496E+01   1.524995E+02   2.789049E+02   1.644390E+02   2.169520E+02   3.786055E+02   1.201318E+02   4.169695E+01   3.429731E+01   3.555786E+01   3.735853E+01   4.554398E+01   6.398664E+01   1.210617E+02   7.463020E+01   7.814555E+01   1.076288E+02   4.860359E+01   3.718495E+01   2.469382E+01   2.352519E+01   2.748083E+01   5.307635E+01   3.914328E+01   1.674095E+02   2.665281E+02   1.287199E+02   1.553029E+02   5.965997E+01   2.701306E+01   3.879661E+01   4.630529E+01   4.630529E+01   5.624870E+01   1.626555E+02   1.626555E+02   1.985290E+02   2.808334E+02   2.808334E+02   1.708647E+02   1.708647E+02   1.708647E+02   2.413169E+02   2.413169E+02   2.413169E+02   1.359738E+02   1.359738E+02   1.359738E+02   1.359738E+02   1.359738E+02   7.630888E+01   7.630888E+01   7.630888E+01   7.630888E+01   7.630888E+01   9.058617E+01   9.058617E+01   9.058617E+01   9.058617E+01   9.058617E+01   9.058617E+01   9.058617E+01   1.313529E+02   1.313529E+02   1.313529E+02   1.313529E+02   1.313529E+02   1.313529E+02   1.313529E+02   1.313529E+02   1.313529E+02   1.313529E+02   3.355555E+01   3.355555E+01   3.355555E+01   3.355555E+01   3.355555E+01   3.355555E+01   3.355555E+01   3.355555E+01   3.355555E+01   8.164629E+01   8.164629E+01   8.164629E+01   8.164629E+01   8.164629E+01   8.164629E+01   8.164629E+01   2.501099E+02   2.501099E+02   2.501099E+02   2.501099E+02   2.501099E+02   3.537878E+01   3.537878E+01   3.537878E+01   3.537878E+01   3.091969E+01   3.091969E+01   3.091969E+01   4.687083E+01   4.687083E+01   1.054419E+02   1.054419E+02   1.292520E+02   1.292520E+02   1.434464E+02   4.285516E+01   4.903479E+01   4.903479E+01   4.027269E+01   4.007143E+01   1.550394E+01   1.353915E+01   8.385938E+01   4.975355E+01   9.174783E+01   2.044812E+02   8.747733E+01   3.587017E+01   8.772693E+01   1.158857E+02   4.881313E+01   8.474737E+01   1.262460E+02   1.000733E+02   1.021764E+02   7.030067E+01   2.038877E+02   2.450894E+02   3.446906E+02   7.567987E+01   6.214458E+01   3.812640E+01   8.912082E+00   9.175971E+00   7.644622E+00   3.500857E+01   1.367780E+02   1.495896E+02   2.744412E+02   8.538712E+01   9.965779E+01   9.229438E+01   1.125398E+02   1.283851E+02   8.509581E+01   8.879897E+01   3.281411E+01
   3.594859E+02   3.073651E+02   4.534025E+02   4.841717E+02   3.731751E+02   4.193690E+02   2.024437E+02   1.513109E+02   4.488659E+01   1.737444E+01   2.609150E+01   4.591501E+01   5.687400E+01   5.984610E+01   4.025261E+01   3.099205E+01   2.789495E+01   2.801497E+01   2.406866E+01   2.648079E+01   6.261057E+01   1.017868E+02   1.527229E+02   1.186456E+02   8.196892E+01   7.349509E+01   6.687904E+01   1.411613E+02   1.298058E+02   2.071887E+02   4.737982E+02   1.984674E+02   1.472643E+02   8.909227E+01   4.726203E+01   4.824977E+01   1.311643E+02   5.225346E+01   1.777530E+01   3.705272E+01   9.999986E+01   2.067498E+02   3.287290E+02   1.782506E+02   2.111795E+02   2.025491E+02   1.033502E+02   1.960427E+01   1.718664E+01   1.039508E+02   6.232738E+01   2.633863E+01   4.914264E+01   6.417686E+01   3.627821E+01   4.076632E+01   1.155962E+02   5.458258E+01   9.003157E+01   1.420126E+02   1.812385E+02   3.090811E+02   3.172409E+02   1.995194E+02   4.179938E+01   2.190330E+01   1.003394E+02   2.273066E+01   2.109247E+01   3.901935E+01   3.879868E+01   1.089373E+02   9.871481E+01   8.466299E+01   1.805788E+02   9.695372E+01   5.665331E+01   2.203746E+01   2.058429E+01   2.078117E+01   4.128668E+01   5.985628E+01   2.282173E+02   3.416379E+02   1.063802E+02   1.220289E+02   6.656097E+01   3.184693E+01   4.602675E+01   6.734492E+01   6.734492E+01   9.834155E+01   1.316939E+02   1.316939E+02   2.214342E+02   3.438359E+02   3.438359E+02   2.910734E+02   2.910734E+02   2.910734E+02   2.175899E+02   2.175899E+02   2.175899E+02   1.284981E+02   1.284981E+02   1.284981E+02   1.284981E+02   1.284981E+02   5.440876E+01   5.440876E+01   5.440876E+01   5.440876E+01   5.440876E+01   1.119348E+02   1.119348E+02   1.119348E+02   1.119348E+02   1.119348E+02   1.119348E+02   1.119348E+02   1.806272E+02   1.806272E+02   1.806272E+02   1.806272E+02   1.806272E+02   1.806272E+02   1.806272E+02   1.806272E+02   1.806272E+02   1.806272E+02   9.952287E+01   9.952287E+01   9.952287E+01   9.952287E+01   9.952287E+01   9.952287E+01   9.952287E+01   9.952287E+01   9.952287E+01   8.383170E+01   8.383170E+01   8.383170E+01   8.383170E+01   8.383170E+01   8.383170E+01   8.383170E+01   1.236963E+02   1.236963E+02   1.236963E+02   1.236963E+02   1.236963E+02   4.238296E+01   4.238296E+01   4.238296E+01   4.238296E+01   2.104302E+01   2.104302E+01   2.104302E+01   6.388424E+01   6.388424E+01   5.762992E+01   5.762992E+01   3.580383E+01   3.580383E+01   8.820481E+01   3.787505E+01   3.287822E+01   3.287822E+01   2.074141E+01   4.690157E+01   1.703453E+01   3.459405E+01   1.300030E+02   1.125143E+02   2.482874E+01   8.271732E+01   8.209728E+01   8.973302E+01   6.981193E+01   8.955099E+01   5.329072E+01   5.562010E+01   9.672260E+01   9.445424E+01   5.169106E+01   2.636398E+01   1.688746E+02   2.892552E+02   8.512116E+02   1.680601E+02   9.180973E+01   8.063027E+01   1.748277E+01   1.660116E+01   1.895545E+01   3.410361E+01   5.681999E+01   1.351604E+02   6.694521E+01   9.580941E+01   1.453470E+02   1.515980E+02   1.821323E+02   1.008562E+02   7.642186E+01   6.912198E+01   3.438146E+01
   3.450806E+02   5.590428E+02   3.616050E+02   3.153692E+02   2.469673E+02   3.493801E+02   1.589736E+02   1.200662E+02   3.714589E+01   2.187234E+01   1.201015E+01   5.071662E+01   7.221062E+01   9.314592E+01   8.927824E+01   9.410234E+01   5.927065E+01   4.806406E+01   4.195997E+01   6.704668E+01   4.980515E+01   1.362879E+02   1.851715E+02   1.392263E+02   9.750744E+01   5.829823E+01   8.027685E+01   1.934142E+02   2.531594E+02   2.011381E+02   4.894417E+02   1.687841E+02   7.963102E+01   1.784327E+02   7.222041E+01   4.289569E+01   8.002473E+01   3.810355E+01   1.943106E+01   2.685330E+01   2.422360E+02   5.025378E+02   2.413427E+02   1.806317E+02   1.192571E+02   1.524026E+02   1.123795E+02   1.642527E+01   2.094687E+01   4.445860E+01   4.445409E+01   3.708124E+01   8.190527E+01   6.214159E+01   4.529146E+01   1.053498E+02   8.069093E+01   2.803328E+01   6.337184E+01   1.801509E+02   1.339665E+02   2.199783E+02   1.986947E+02   1.764372E+02   8.176598E+01   5.036052E+01   1.900328E+02   4.136835E+01   5.373249E+01   7.154891E+01   4.442475E+01   1.023752E+02   1.189782E+02   1.492989E+02   1.829994E+02   7.706710E+01   5.139456E+01   2.213244E+01   2.226839E+01   2.920039E+01   5.803209E+01   8.192091E+01   2.215410E+02   2.461709E+02   1.176371E+02   9.195548E+01   1.959228E+02   5.848021E+01   6.184400E+01   5.272752E+01   5.272752E+01   8.064376E+01   1.018127E+02   1.018127E+02   2.566691E+02   2.367782E+02   2.367782E+02   2.022460E+02   2.022460E+02   2.022460E+02   8.413726E+01   8.413726E+01   8.413726E+01   8.039282E+01   8.039282E+01   8.039282E+01   8.039282E+01   8.039282E+01   4.390277E+01   4.390277E+01   4.390277E+01   4.390277E+01   4.390277E+01   1.202357E+02   1.202357E+02   1.202357E+02   1.202357E+02   1.202357E+02   1.202357E+02   1.202357E+02   2.801042E+02   2.801042E+02   2.801042E+02   2.801042E+02   2.801042E+02   2.801042E+02   2.801042E+02   2.801042E+02   2.801042E+02   2.801042E+02   2.474851E+02   2.474851E+02   2.474851E+02   2.474851E+02   2.474851E+02   2.474851E+02   2.474851E+02   2.474851E+02   2.474851E+02   1.286275E+02   1.286275E+02   1.286275E+02   1.286275E+02   1.286275E+02   1.286275E+02   1.286275E+02   1.080668E+02   1.080668E+02   1.080668E+02   1.080668E+02   1.080668E+02   2.330622E+01   2.330622E+01   2.330622E+01   2.330622E+01   7.445590E+00   7.445590E+00   7.445590E+00   1.338145E+01   1.338145E+01   3.351584E+01   3.351584E+01   2.290118E+01   2.290118E+01   9.099334E+01   5.584417E+01   2.178191E+01   2.178191E+01   1.193577E+01   8.232710E+00   6.222935E+01   6.087087E+01   9.053099E+01   9.539916E+01   6.056212E+01   1.348407E+02   9.451577E+01   6.437052E+01   1.176210E+02   1.370943E+02   7.372855E+01   7.329562E+01   9.334322E+01   7.251503E+01   1.520323E+02   4.985325E+01   7.284055E+01   1.581240E+02   2.575648E+02   8.966482E+01   9.913694E+01   4.774417E+01   1.608312E+01   2.424213E+01   4.040540E+01   3.117282E+01   3.803264E+01   8.820190E+01   8.914801E+01   1.052467E+02   1.944585E+02   1.051426E+02   1.102785E+02   1.078053E+02   1.362921E+02   7.542968E+01   2.307120E+01
   1.471272E+02   3.129228E+02   1.650220E+02   2.643693E+02   4.675208E+02   1.782961E+02   8.580090E+01   1.463015E+02   3.718130E+01   2.532963E+01   2.845132E+01   7.655433E+01   1.895669E+02   2.121109E+02   1.635135E+02   1.297193E+02   4.355460E+01   3.306773E+01   5.354853E+01   4.068694E+01   1.059808E+02   1.800837E+02   2.038651E+02   1.641950E+02   2.026093E+02   1.950494E+02   7.737482E+01   9.163512E+01   1.251879E+02   2.327367E+02   5.270620E+02   2.462657E+02   5.404816E+01   1.587281E+02   4.445419E+01   4.245884E+01   9.064500E+01   5.756474E+01   3.305103E+01   5.381277E+01   1.741583E+02   2.888365E+02   6.072818E+02   6.448497E+02   1.543379E+02   2.266320E+02   5.941819E+01   2.545942E+01   3.902688E+01   2.927471E+01   4.093742E+01   6.281551E+01   6.973486E+01   8.633881E+01   2.037216E+02   8.282941E+01   5.625568E+01   7.135460E+01   5.350987E+01   2.010924E+02   9.455693E+01   7.256033E+01   1.672542E+02   6.919088E+01   1.325652E+02   1.045827E+02   6.970947E+01   6.393902E+01   5.102849E+01   5.394204E+01   3.214822E+01   7.569456E+01   7.378722E+01   6.098978E+01   7.126331E+01   6.024778E+01   8.872660E+01   3.566558E+01   5.228043E+01   4.968549E+01   1.379135E+02   1.374125E+02   1.899640E+02   2.912454E+02   2.506845E+02   8.466152E+01   5.616690E+01   6.933777E+01   8.224890E+01   4.860773E+01   4.860773E+01   4.102776E+01   5.641376E+01   5.641376E+01   8.419041E+01   1.374474E+02   1.374474E+02   9.457613E+01   9.457613E+01   9.457613E+01   6.556405E+01   6.556405E+01   6.556405E+01   1.210452E+02   1.210452E+02   1.210452E+02   1.210452E+02   1.210452E+02   3.157200E+01   3.157200E+01   3.157200E+01   3.157200E+01   3.157200E+01   1.271592E+02   1.271592E+02   1.271592E+02   1.271592E+02   1.271592E+02   1.271592E+02   1.271592E+02   1.144238E+02   1.144238E+02   1.144238E+02   1.144238E+02   1.144238E+02   1.144238E+02   1.144238E+02   1.144238E+02   1.144238E+02   1.144238E+02   1.797809E+02   1.797809E+02   1.797809E+02   1.797809E+02   1.797809E+02   1.797809E+02   1.797809E+02   1.797809E+02   1.797809E+02   8.524955E+01   8.524955E+01   8.524955E+01   8.524955E+01   8.524955E+01   8.524955E+01   8.524955E+01   8.208818E+01   8.208818E+01   8.208818E+01   8.208818E+01   8.208818E+01   1.700736E+01   1.700736E+01   1.700736E+01   1.700736E+01   7.345131E+00   7.345131E+00   7.345131E+00   5.048705E+00   5.048705E+00   2.035197E+01   2.035197E+01   3.171744E+01   3.171744E+01   5.265177E+01   6.155707E+01   4.876066E+01   4.876066E+01   7.112330E+00   7.164697E+00   2.772138E+01   2.935350E+01   4.730075E+01   4.365845E+01   2.345538E+01   1.553193E+02   1.153413E+02   5.009509E+01   1.805893E+02   5.137919E+01   6.395784E+01   1.013158E+02   7.883911E+01   1.156070E+02   1.217434E+02   6.078230E+01   4.549881E+01   2.462599E+02   1.215382E+02   9.429046E+01   2.507437E+02   5.672041E+01   4.332016E+01   1.799776E+01   6.685905E+01   4.120744E+01   9.583978E+01   8.417497E+01   7.752996E+01   6.831113E+01   1.655894E+02   1.141092E+02   9.048009E+01   1.035415E+02   6.143642E+01   2.733329E+01   2.490662E+01
   1.032621E+02   2.002996E+02   9.206461E+01   2.826950E+02   3.136772E+02   7.274188E+01   6.570219E+01   1.695456E+02   8.260413E+01   6.067865E+01   3.230119E+01   5.346682E+01   2.038546E+02   2.264324E+02   1.209670E+02   3.382356E+01   1.699133E+01   1.531411E+01   3.619884E+01   5.230441E+01   7.450176E+01   2.677669E+02   1.731289E+02   2.101101E+02   3.019062E+02   1.026541E+02   4.231059E+01   1.339871E+02   1.807058E+02   1.430224E+02   2.451575E+02   1.798494E+02   6.074599E+01   1.514363E+02   4.629023E+01   3.214484E+01   5.793426E+01   4.421326E+01   3.079571E+01   1.139490E+02   3.984630E+02   5.011392E+02   1.181253E+03   4.311379E+02   2.247134E+02   1.806822E+02   7.033965E+01   1.849204E+01   4.072729E+01   1.738948E+01   5.271616E+01   9.822903E+01   7.965157E+01   2.422570E+01   1.314568E+02   1.364247E+02   5.032874E+01   6.985306E+01   4.642253E+01   2.086206E+02   4.735596E+01   8.705521E+01   1.296675E+02   2.831756E+01   8.717138E+01   4.931493E+01   8.605460E+01   1.069930E+02   3.255891E+02   1.659067E+02   2.471080E+02   5.242155E+01   7.198277E+01   1.649345E+02   5.136456E+01   4.014354E+01   1.018532E+02   5.821218E+01   5.705755E+01   6.139116E+01   3.525163E+02   2.598957E+02   1.476447E+02   1.743246E+02   2.353519E+02   1.863810E+02   4.103543E+01   7.534613E+01   4.518624E+01   6.158365E+01   6.158365E+01   5.597996E+01   4.380136E+01   4.380136E+01   1.525005E+02   6.989989E+01   6.989989E+01   8.079084E+01   8.079084E+01   8.079084E+01   6.535209E+01   6.535209E+01   6.535209E+01   4.022351E+01   4.022351E+01   4.022351E+01   4.022351E+01   4.022351E+01   2.423003E+01   2.423003E+01   2.423003E+01   2.423003E+01   2.423003E+01   1.106792E+02   1.106792E+02   1.106792E+02   1.106792E+02   1.106792E+02   1.106792E+02   1.106792E+02   9.176755E+01   9.176755E+01   9.176755E+01   9.176755E+01   9.176755E+01   9.176755E+01   9.176755E+01   9.176755E+01   9.176755E+01   9.176755E+01   1.059871E+02   1.059871E+02   1.059871E+02   1.059871E+02   1.059871E+02   1.059871E+02   1.059871E+02   1.059871E+02   1.059871E+02   8.570206E+01   8.570206E+01   8.570206E+01   8.570206E+01   8.570206E+01   8.570206E+01   8.570206E+01   6.936019E+01   6.936019E+01   6.936019E+01   6.936019E+01   6.936019E+01   8.824414E+00   8.824414E+00   8.824414E+00   8.824414E+00   9.216027E+00   9.216027E+00   9.216027E+00   6.624285E+00   6.624285E+00   1.792233E+01   1.792233E+01   3.661974E+01   3.661974E+01   5.645515E+01   6.393606E+01   4.651089E+01   4.651089E+01   5.708470E+00   5.292243E+00   2.647448E+01   2.007105E+01   6.374113E+01   4.922452E+01   3.504342E+01   1.607776E+02   8.065514E+01   3.767245E+01   1.755761E+02   1.014423E+02   4.080031E+01   1.584506E+02   1.041388E+02   6.285047E+01   8.717964E+01   9.817697E+01   5.871635E+01   5.070075E+01   1.150200E+02   1.152772E+02   4.030602E+02   1.987071E+02   3.713482E+01   3.609364E+01   7.429387E+01   6.285240E+01   1.067460E+02   6.167770E+01   1.279822E+02   5.130436E+01   1.421793E+02   1.987525E+02   1.031153E+02   5.642308E+01   2.562080E+01   3.737419E+01   2.995111E+01
   1.549832E+02   1.785762E+02   5.039333E+01   2.741459E+02   1.582091E+02   2.553724E+01   5.823312E+01   7.915538E+01   6.091491E+01   5.552317E+01   2.407828E+01   8.715681E+01   1.454293E+02   1.772748E+02   2.099586E+02   4.340188E+01   7.216916E+00   8.860825E+00   4.660670E+01   5.911670E+01   9.012015E+01   1.311218E+02   1.703070E+02   2.251765E+02   1.918567E+02   7.899124E+01   4.168023E+01   5.500626E+01   8.505186E+01   1.717793E+02   1.273343E+02   9.027264E+01   8.781334E+01   2.816374E+02   5.813120E+01   5.498545E+01   2.721729E+01   2.773105E+01   2.542873E+01   9.633760E+01   4.770427E+02   9.444124E+02   1.118628E+03   9.351238E+02   3.210337E+02   1.666630E+02   1.473166E+02   2.209471E+01   1.655445E+01   1.242625E+01   2.232105E+01   7.333597E+01   5.049595E+01   9.682133E+00   2.196239E+01   5.479963E+01   8.715135E+01   5.531781E+01   1.095121E+02   2.795169E+02   1.896753E+02   9.771516E+01   6.174097E+01   2.827813E+01   1.107222E+02   1.522063E+02   2.391049E+02   3.770681E+02   7.586996E+02   2.555064E+02   1.994307E+02   7.749258E+01   2.661790E+01   1.670788E+02   5.916700E+01   2.909171E+01   4.687358E+01   1.141617E+02   6.661917E+01   2.997381E+01   1.399829E+02   2.013136E+02   2.501712E+02   1.803860E+02   1.385265E+02   5.078276E+01   2.760258E+01   8.583417E+01   5.879336E+01   3.565499E+01   3.565499E+01   3.869630E+01   8.055386E+01   8.055386E+01   1.808134E+02   4.075538E+01   4.075538E+01   3.920639E+01   3.920639E+01   3.920639E+01   9.008097E+01   9.008097E+01   9.008097E+01   3.955247E+01   3.955247E+01   3.955247E+01   3.955247E+01   3.955247E+01   2.593120E+01   2.593120E+01   2.593120E+01   2.593120E+01   2.593120E+01   6.248951E+01   6.248951E+01   6.248951E+01   6.248951E+01   6.248951E+01   6.248951E+01   6.248951E+01   1.651149E+02   1.651149E+02   1.651149E+02   1.651149E+02   1.651149E+02   1.651149E+02   1.651149E+02   1.651149E+02   1.651149E+02   1.651149E+02   1.028528E+02   1.028528E+02   1.028528E+02   1.028528E+02   1.028528E+02   1.028528E+02   1.028528E+02   1.028528E+02   1.028528E+02   8.567982E+01   8.567982E+01   8.567982E+01   8.567982E+01   8.567982E+01   8.567982E+01   8.567982E+01   3.486448E+01   3.486448E+01   3.486448E+01   3.486448E+01   3.486448E+01   7.877480E+00   7.877480E+00   7.877480E+00   7.877480E+00   7.804772E+00   7.804772E+00   7.804772E+00   1.155038E+01   1.155038E+01   2.256100E+01   2.256100E+01   4.837519E+01   4.837519E+01   4.497183E+01   6.337278E+01   3.321473E+01   3.321473E+01   1.432039E+01   9.210456E+00   1.075521E+01   1.842107E+01   3.419806E+01   2.976846E+01   3.200728E+01   8.377055E+01   5.605129E+01   4.354050E+01   2.270630E+02   2.266394E+02   3.700745E+01   9.195470E+01   1.186768E+02   9.304151E+01   8.829260E+01   4.827718E+01   5.840612E+01   7.808926E+01   6.375646E+01   1.737061E+02   5.118444E+02   1.771703E+02   9.465451E+01   1.592377E+02   1.406933E+02   1.002086E+02   1.171088E+02   4.200363E+01   1.255251E+02   1.599667E+02   9.087543E+01   2.047845E+02   8.673136E+01   6.726289E+01   2.719155E+01   4.567943E+01   6.364930E+01
   7.364417E+01   5.916382E+01   7.587931E+01   1.010558E+02   1.192034E+02   3.421098E+01   8.059164E+01   1.511177E+02   9.171080E+01   4.644797E+01   3.425566E+01   8.107207E+01   1.399147E+02   1.458553E+02   1.560279E+02   4.945002E+01   1.526622E+01   2.259230E+01   4.925072E+01   7.105357E+01   1.092879E+02   9.022923E+01   7.278814E+01   1.283310E+02   2.106832E+02   6.287086E+01   4.653177E+01   3.200576E+01   4.711328E+01   1.460158E+02   1.510546E+02   1.758085E+02   1.082932E+02   1.037812E+02   5.081124E+01   5.331594E+01   1.538926E+01   1.971956E+01   1.993686E+01   1.089853E+02   5.614180E+02   3.336894E+02   3.003955E+02   2.351832E+02   8.470855E+01   6.527888E+01   7.900254E+01   1.124474E+01   2.207570E+01   6.235109E+00   2.476879E+01   1.267491E+02   3.675962E+01   1.600217E+01   2.106216E+01   6.968408E+01   2.594508E+01   6.857870E+01   1.316593E+02   1.150854E+02   1.260801E+02   6.637708E+01   3.676591E+01   1.818142E+01   8.838499E+01   1.506306E+02   2.348658E+02   3.491200E+02   3.515152E+02   2.266522E+02   1.347088E+02   9.803251E+01   3.563639E+01   2.367289E+02   1.001762E+02   2.305194E+01   7.591720E+01   8.869955E+01   4.720055E+01   2.349964E+01   1.070327E+02   2.500154E+02   3.758263E+02   2.817451E+02   2.518467E+02   3.973348E+01   3.423477E+01   5.559815E+01   3.710505E+01   5.523697E+01   5.523697E+01   9.674721E+01   9.906751E+01   9.906751E+01   6.654952E+01   5.391180E+01   5.391180E+01   2.710675E+01   2.710675E+01   2.710675E+01   6.465566E+01   6.465566E+01   6.465566E+01   5.586552E+01   5.586552E+01   5.586552E+01   5.586552E+01   5.586552E+01   2.373867E+01   2.373867E+01   2.373867E+01   2.373867E+01   2.373867E+01   5.330090E+01   5.330090E+01   5.330090E+01   5.330090E+01   5.330090E+01   5.330090E+01   5.330090E+01   1.325244E+02   1.325244E+02   1.325244E+02   1.325244E+02   1.325244E+02   1.325244E+02   1.325244E+02   1.325244E+02   1.325244E+02   1.325244E+02   6.108698E+01   6.108698E+01   6.108698E+01   6.108698E+01   6.108698E+01   6.108698E+01   6.108698E+01   6.108698E+01   6.108698E+01   2.099211E+02   2.099211E+02   2.099211E+02   2.099211E+02   2.099211E+02   2.099211E+02   2.099211E+02   5.187270E+01   5.187270E+01   5.187270E+01   5.187270E+01   5.187270E+01   1.596813E+01   1.596813E+01   1.596813E+01   1.596813E+01   1.017971E+01   1.017971E+01   1.017971E+01   1.336890E+01   1.336890E+01   3.442962E+01   3.442962E+01   6.148719E+01   6.148719E+01   4.528296E+01   2.798212E+01   8.208734E+01   8.208734E+01   2.597374E+01   1.895086E+01   1.711962E+01   1.764036E+01   2.618755E+01   2.501594E+01   2.707100E+01   5.331752E+01   7.796783E+01   1.436601E+02   1.575847E+02   1.142075E+02   5.237625E+01   6.880637E+01   1.030177E+02   8.246341E+01   8.496018E+01   4.895550E+01   5.879958E+01   1.193437E+02   1.285072E+02   3.038488E+02   5.771326E+02   1.465664E+02   1.489422E+02   2.118179E+02   1.123236E+02   1.389740E+02   1.743352E+02   1.460964E+02   1.230870E+02   1.372403E+02   8.248151E+01   1.265792E+02   4.839339E+01   5.843795E+01   7.285350E+01   8.979165E+01   1.460922E+02
   8.077250E+01   7.715314E+01   1.154423E+02   1.930022E+02   1.525591E+02   7.193665E+01   4.967226E+01   1.375948E+02   6.618117E+01   3.746679E+01   5.035925E+01   5.309714E+01   8.403609E+01   1.410230E+02   8.330874E+01   5.356379E+01   1.774261E+01   3.646064E+01   4.578448E+01   8.498639E+01   1.499202E+02   1.704845E+02   7.775366E+01   1.787542E+02   1.340089E+02   4.403688E+01   4.617988E+01   7.567489E+01   5.024221E+01   1.111026E+02   3.060051E+02   2.919784E+02   9.893897E+01   6.897743E+01   3.484989E+01   4.942335E+01   1.313113E+01   7.649452E+00   3.122674E+01   1.040759E+02   2.872849E+02   8.588233E+01   1.776176E+02   1.470480E+02   4.996945E+01   6.040675E+01   6.436440E+01   9.194550E+00   3.091201E+01   6.766760E+00   1.514583E+01   9.812842E+01   2.895900E+01   8.515502E+00   7.165474E+00   1.779106E+01   2.127249E+01   6.137646E+01   8.077079E+01   1.230774E+02   1.976925E+02   9.483916E+01   2.967139E+01   2.980704E+01   8.316620E+01   1.383390E+02   1.285609E+02   2.951773E+02   3.028502E+02   1.454161E+02   2.935821E+02   1.154883E+02   1.658163E+02   2.351570E+02   8.595836E+01   7.958162E+01   1.284848E+02   1.012421E+02   1.428558E+02   2.978706E+01   7.451867E+01   3.693911E+02   3.506105E+02   6.117608E+02   6.108260E+02   3.817727E+01   4.056092E+01   3.556638E+01   2.826010E+01   5.181722E+01   5.181722E+01   6.173964E+01   1.104235E+02   1.104235E+02   6.529487E+01   1.238532E+02   1.238532E+02   5.555950E+01   5.555950E+01   5.555950E+01   4.806807E+01   4.806807E+01   4.806807E+01   3.093793E+01   3.093793E+01   3.093793E+01   3.093793E+01   3.093793E+01   2.454668E+01   2.454668E+01   2.454668E+01   2.454668E+01   2.454668E+01   1.049406E+02   1.049406E+02   1.049406E+02   1.049406E+02   1.049406E+02   1.049406E+02   1.049406E+02   6.990789E+01   6.990789E+01   6.990789E+01   6.990789E+01   6.990789E+01   6.990789E+01   6.990789E+01   6.990789E+01   6.990789E+01   6.990789E+01   9.407314E+01   9.407314E+01   9.407314E+01   9.407314E+01   9.407314E+01   9.407314E+01   9.407314E+01   9.407314E+01   9.407314E+01   1.874388E+02   1.874388E+02   1.874388E+02   1.874388E+02   1.874388E+02   1.874388E+02   1.874388E+02   5.248796E+01   5.248796E+01   5.248796E+01   5.248796E+01   5.248796E+01   2.193881E+01   2.193881E+01   2.193881E+01   2.193881E+01   1.937296E+01   1.937296E+01   1.937296E+01   1.721109E+01   1.721109E+01   2.228577E+01   2.228577E+01   3.761941E+01   3.761941E+01   4.867072E+01   2.700076E+01   3.038943E+01   3.038943E+01   4.718858E+01   3.590200E+01   1.030143E+01   4.732740E+01   1.438156E+01   2.748595E+01   2.987690E+01   7.280982E+01   6.384309E+01   5.077241E+01   1.123935E+02   4.732936E+01   2.776147E+01   7.924252E+01   5.162654E+01   7.156315E+01   9.554582E+01   4.861410E+01   1.096497E+02   5.996344E+01   1.404682E+02   8.896552E+01   2.339468E+02   1.224094E+02   2.832284E+02   8.935667E+01   9.510500E+01   1.844740E+02   1.354340E+02   2.309176E+02   8.992259E+01   1.431022E+02   1.047560E+02   1.696008E+02   8.224405E+01   6.517603E+01   1.396863E+02   1.188013E+02   1.412418E+02
   8.025376E+01   1.466503E+02   2.012826E+02   2.399479E+02   8.056794E+01   9.679467E+01   7.161739E+01   9.634505E+01   5.311515E+01   1.933291E+01   3.261642E+01   1.406718E+02   1.647268E+02   2.625655E+02   9.608244E+01   7.795365E+01   9.760143E+01   7.560621E+01   6.967670E+01   1.809212E+02   2.198637E+02   2.141556E+02   8.044881E+01   7.346162E+01   2.068958E+01   3.723133E+01   6.882921E+01   6.930499E+01   1.042873E+02   1.322930E+02   2.332744E+02   3.250039E+02   8.858189E+01   7.093721E+01   6.425548E+01   5.209117E+01   1.060582E+01   1.667274E+01   2.436755E+01   8.653152E+01   2.546530E+02   2.451437E+02   1.519384E+02   8.339838E+01   4.163079E+01   3.803817E+01   2.757722E+01   3.236834E+01   1.867842E+01   1.461722E+01   1.915405E+01   3.337841E+01   3.694711E+01   8.268891E+00   1.400811E+01   2.556561E+01   1.796663E+01   4.436840E+01   7.939171E+01   4.653531E+01   1.275349E+02   6.960957E+01   3.926619E+01   2.972318E+01   1.162247E+02   1.270249E+02   1.192445E+02   1.513141E+02   2.231801E+02   1.500937E+02   1.865699E+02   1.729873E+02   2.248564E+02   1.870208E+02   6.723561E+01   7.598579E+01   8.755548E+01   8.135503E+01   1.165455E+02   5.360689E+01   6.430220E+01   2.145639E+02   3.933185E+02   5.314099E+02   3.208016E+02   1.665055E+02   5.168498E+01   5.126730E+01   3.124977E+01   4.589216E+01   4.589216E+01   7.472322E+01   1.280870E+02   1.280870E+02   1.014865E+02   4.849237E+02   4.849237E+02   6.285735E+01   6.285735E+01   6.285735E+01   1.995452E+01   1.995452E+01   1.995452E+01   1.475892E+01   1.475892E+01   1.475892E+01   1.475892E+01   1.475892E+01   1.523631E+01   1.523631E+01   1.523631E+01   1.523631E+01   1.523631E+01   5.481469E+01   5.481469E+01   5.481469E+01   5.481469E+01   5.481469E+01   5.481469E+01   5.481469E+01   4.342989E+01   4.342989E+01   4.342989E+01   4.342989E+01   4.342989E+01   4.342989E+01   4.342989E+01   4.342989E+01   4.342989E+01   4.342989E+01   1.144000E+02   1.144000E+02   1.144000E+02   1.144000E+02   1.144000E+02   1.144000E+02   1.144000E+02   1.144000E+02   1.144000E+02   2.478098E+02   2.478098E+02   2.478098E+02   2.478098E+02   2.478098E+02   2.478098E+02   2.478098E+02   3.465394E+01   3.465394E+01   3.465394E+01   3.465394E+01   3.465394E+01   4.435832E+01   4.435832E+01   4.435832E+01   4.435832E+01   4.293485E+01   4.293485E+01   4.293485E+01   3.736227E+01   3.736227E+01   3.671074E+01   3.671074E+01   4.612743E+01   4.612743E+01   3.995591E+01   1.715813E+01   1.514374E+01   1.514374E+01   3.777820E+01   3.918404E+01   1.146099E+01   1.929811E+01   2.562629E+01   1.073265E+02   4.949754E+01   5.814052E+01   6.336705E+01   8.065704E+01   6.202169E+01   1.909823E+01   3.810019E+01   7.804661E+01   2.982878E+01   5.077631E+01   4.726432E+01   5.096862E+01   1.132856E+02   4.436674E+01   1.172060E+02   5.004543E+01   1.864799E+02   8.814894E+01   3.545063E+02   2.441691E+02   1.580318E+02   4.282317E+02   1.183767E+02   7.994374E+01   4.402219E+01   6.834090E+01   1.413931E+02   1.724572E+02   8.172286E+01   1.234727E+02   1.151365E+02   1.735041E+02   1.737420E+02