# LPF package for  MODFLOW-2005, generated by Flopy.
        53    -1E+30         0  
         1
         0
   0.000000E+00
         0
         0
INTERNAL               1 (207E15.6) -1 #hk layer 1                    
   6.193120E+01   3.601444E+01   1.187945E+02   1.228852E+02   5.039471E+01   8.849537E+01   4.418562E+01   5.568485E+01   1.647308E+02   7.494206E+01   2.335580E+02   1.978661E+02   2.023845E+02   3.467510E+02   5.008431E+02   4.755576E+02   2.245487E+02   1.096419E+02   6.301523E+01   3.363791E+01   4.343798E+01   1.042674E+02   1.530787E+02   2.604483E+02   1.625934E+02   1.225019E+02   1.113445E+02   3.395419E+01   6.767802E+01   1.364741E+02   1.855481E+02   9.902255E+01   1.640422E+02   1.485097E+02   2.549836E+02   6.350096E+01   5.900401E+01   4.374382E+01   3.570031E+01   4.912780E+01   2.294718E+01   4.018760E+01   1.074114E+02   1.095414E+02   7.164790E+01   7.392075E+01   8.948016E+01   1.645523E+02   1.770810E+02   6.195471E+02   3.346717E+02   1.901549E+02   1.503997E+02   1.208177E+02   1.224540E+02   4.791274E+01   3.854872E+01   1.205580E+01   4.498288E+01   3.703604E+01   2.703115E+01   5.992872E+01   1.460131E+01   1.755035E+01   7.430766E+00   9.282501E+00   1.388241E+01   2.013226E+01   2.197559E+01   9.909869E+01   1.289438E+02   1.777946E+02   8.326826E+01   3.551988E+01   2.847047E+01   3.213517E+01   4.685466E+01   9.548278E+01   7.175325E+01   3.854742E+02   2.150122E+02   1.019565E+02   3.624361E+01   2.939712E+01   2.554439E+01   5.143073E+01   6.443308E+01   1.372681E+02   1.063996E+02   1.522436E+02   1.522436E+02   9.205729E+01   5.557210E+01   5.557210E+01   1.364573E+01   1.184844E+01   1.184844E+01   1.756419E+01   1.756419E+01   1.756419E+01   3.754668E+01   3.754668E+01   3.754668E+01   1.228149E+02   1.228149E+02   1.228149E+02   1.228149E+02   1.228149E+02   1.167590E+02   1.167590E+02   1.167590E+02   1.167590E+02   1.167590E+02   4.924516E+01   4.924516E+01   4.924516E+01   4.924516E+01   4.924516E+01   4.924516E+01   4.924516E+01   3.939559E+01   3.939559E+01   3.939559E+01   3.939559E+01   3.939559E+01   3.939559E+01   3.939559E+01   3.939559E+01   3.939559E+01   3.939559E+01   5.907870E+01   5.907870E+01   5.907870E+01   5.907870E+01   5.907870E+01   5.907870E+01   5.907870E+01   5.907870E+01   5.907870E+01   4.478350E+01   4.478350E+01   4.478350E+01   4.478350E+01   4.478350E+01   4.478350E+01   4.478350E+01   5.337719E+01   5.337719E+01   5.337719E+01   5.337719E+01   5.337719E+01   1.998725E+02   1.998725E+02   1.998725E+02   1.998725E+02   7.987571E+01   7.987571E+01   7.987571E+01   8.803732E+01   8.803732E+01   3.319268E+01   3.319268E+01   6.386606E+01   6.386606E+01   1.166385E+02   7.042094E+01   1.496550E+02   1.496550E+02   8.821688E+01   7.530050E+01   2.019633E+01   8.348007E+00   2.167257E+01   5.848333E+01   6.188075E+01   8.013011E+01   8.215209E+01   4.253704E+01   2.750142E+01   3.889423E+01   5.753647E+01   4.398251E+01   7.729501E+01   5.574586E+01   3.946823E+01   2.516121E+01   3.658344E+01   2.928593E+01   2.127474E+02   9.223821E+01   1.570805E+02   1.161151E+02   1.647924E+02   4.326133E+02   1.329786E+02   2.735237E+02   1.560738E+02   7.426341E+01   4.894959E+01   2.111223E+01   2.642155E+01   3.762019E+01   5.237926E+01   1.237957E+02   1.911696E+02   3.426490E+02   2.769865E+02
   1.222660E+02   4.671769E+01   7.249211E+01   7.170746E+01   6.442412E+01   1.295269E+02   1.065175E+02   3.799354E+01   8.517554E+01   2.178273E+01   1.217529E+02   1.258304E+02   1.398681E+02   4.591413E+02   7.581850E+02   4.154460E+02   2.864945E+02   1.113045E+02   3.352384E+01   1.983772E+01   2.793570E+01   1.170749E+02   1.387938E+02   3.111658E+02   1.468641E+02   1.019851E+02   1.052839E+02   3.382338E+01   7.418637E+01   4.725874E+01   2.735569E+02   2.797766E+02   1.664724E+02   1.600828E+02   2.592868E+02   9.197442E+01   9.010976E+01   6.747561E+01   3.086458E+01   7.089191E+01   2.288754E+01   5.199736E+01   1.044808E+02   1.419256E+02   7.893378E+01   7.151260E+01   7.047647E+01   1.713748E+02   1.648558E+02   2.794083E+02   3.020483E+02   1.339991E+02   2.440911E+02   1.280744E+02   1.284379E+02   3.543298E+01   2.322128E+01   3.200668E+01   2.940436E+01   4.421067E+01   2.996422E+01   8.261866E+01   2.530707E+01   1.228842E+01   6.940198E+00   1.295699E+01   1.428025E+01   1.571961E+01   4.853019E+01   8.293294E+01   2.081416E+02   1.020619E+02   1.096347E+02   4.980771E+01   2.503908E+01   4.730964E+01   4.385743E+01   1.017994E+02   1.268340E+02   2.435948E+02   5.953656E+01   3.359929E+01   1.995305E+01   1.294525E+01   2.038033E+01   2.590662E+01   7.826302E+01   8.811326E+01   7.170852E+01   8.108159E+01   8.108159E+01   8.392596E+01   4.890652E+01   4.890652E+01   1.307654E+01   1.668401E+01   1.668401E+01   1.010381E+01   1.010381E+01   1.010381E+01   3.731221E+01   3.731221E+01   3.731221E+01   1.407427E+02   1.407427E+02   1.407427E+02   1.407427E+02   1.407427E+02   1.582843E+02   1.582843E+02   1.582843E+02   1.582843E+02   1.582843E+02   5.808747E+01   5.808747E+01   5.808747E+01   5.808747E+01   5.808747E+01   5.808747E+01   5.808747E+01   2.495413E+01   2.495413E+01   2.495413E+01   2.495413E+01   2.495413E+01   2.495413E+01   2.495413E+01   2.495413E+01   2.495413E+01   2.495413E+01   5.758765E+01   5.758765E+01   5.758765E+01   5.758765E+01   5.758765E+01   5.758765E+01   5.758765E+01   5.758765E+01   5.758765E+01   3.634166E+01   3.634166E+01   3.634166E+01   3.634166E+01   3.634166E+01   3.634166E+01   3.634166E+01   1.159288E+02   1.159288E+02   1.159288E+02   1.159288E+02   1.159288E+02   1.738076E+02   1.738076E+02   1.738076E+02   1.738076E+02   6.968325E+01   6.968325E+01   6.968325E+01   5.056689E+01   5.056689E+01   5.364369E+01   5.364369E+01   1.063157E+02   1.063157E+02   9.752727E+01   1.703958E+02   6.874414E+01   6.874414E+01   5.160448E+01   4.632209E+01   2.363556E+01   9.927479E+00   1.763529E+01   8.194831E+01   8.268682E+01   7.174709E+01   8.810667E+01   7.336238E+01   3.458813E+01   3.714199E+01   4.733719E+01   2.958683E+01   8.548501E+01   8.967767E+01   1.090140E+02   4.393813E+01   3.177414E+01   5.087926E+01   2.442424E+02   1.391248E+02   1.293867E+02   6.311060E+01   1.094216E+02   2.223795E+02   1.332365E+02   1.224275E+02   5.587293E+01   6.231001E+01   5.305901E+01   1.318102E+01   4.959202E+01   6.106717E+01   9.764824E+01   1.626924E+02   2.308657E+02   2.227600E+02   1.139033E+02
   6.818481E+01   5.334171E+01   8.394084E+01   9.946304E+01   7.210896E+01   7.703729E+01   4.524926E+01   6.260472E+01   6.761125E+01   3.315958E+01   1.398357E+02   8.393767E+01   1.200002E+02   4.226625E+02   7.571980E+02   2.855121E+02   2.075676E+02   2.885629E+01   2.351448E+01   2.592186E+01   3.739133E+01   4.564565E+01   5.715314E+01   1.497087E+02   1.598577E+02   3.546538E+02   7.659925E+01   4.675828E+01   3.719756E+01   3.795074E+01   3.559402E+02   3.806781E+02   2.644066E+02   2.191129E+02   2.656674E+02   1.637987E+02   7.086752E+01   5.688436E+01   5.368686E+01   4.740017E+01   2.030038E+01   7.876686E+01   1.355467E+02   1.596088E+02   1.515188E+02   6.216768E+01   4.446487E+01   1.253835E+02   1.781633E+02   1.159361E+02   1.927196E+02   1.783199E+02   1.462783E+02   1.548337E+02   6.076167E+01   1.506574E+01   2.675105E+01   3.494618E+01   4.132237E+01   3.095715E+01   3.499636E+01   8.386864E+01   1.268574E+01   1.523413E+01   1.000245E+01   1.261985E+01   1.094043E+01   2.966522E+01   2.779893E+01   3.666582E+01   6.350165E+01   9.466827E+01   1.200301E+02   4.633429E+01   3.482626E+01   5.021067E+01   8.821694E+01   2.202952E+02   1.019433E+02   1.700731E+02   6.414101E+01   4.775353E+01   1.255127E+01   8.129879E+00   2.588015E+01   3.116542E+01   9.275890E+01   8.084711E+01   6.825341E+01   4.796456E+01   4.796456E+01   7.288170E+01   3.330833E+01   3.330833E+01   2.247265E+01   1.590442E+01   1.590442E+01   6.829319E+00   6.829319E+00   6.829319E+00   3.552642E+01   3.552642E+01   3.552642E+01   7.141879E+01   7.141879E+01   7.141879E+01   7.141879E+01   7.141879E+01   1.469380E+02   1.469380E+02   1.469380E+02   1.469380E+02   1.469380E+02   6.406673E+01   6.406673E+01   6.406673E+01   6.406673E+01   6.406673E+01   6.406673E+01   6.406673E+01   3.609171E+01   3.609171E+01   3.609171E+01   3.609171E+01   3.609171E+01   3.609171E+01   3.609171E+01   3.609171E+01   3.609171E+01   3.609171E+01   5.541623E+01   5.541623E+01   5.541623E+01   5.541623E+01   5.541623E+01   5.541623E+01   5.541623E+01   5.541623E+01   5.541623E+01   6.814384E+01   6.814384E+01   6.814384E+01   6.814384E+01   6.814384E+01   6.814384E+01   6.814384E+01   5.085270E+01   5.085270E+01   5.085270E+01   5.085270E+01   5.085270E+01   4.925720E+01   4.925720E+01   4.925720E+01   4.925720E+01   5.193573E+01   5.193573E+01   5.193573E+01   6.447007E+01   6.447007E+01   2.444937E+01   2.444937E+01   2.966061E+01   2.966061E+01   1.349788E+02   1.667100E+02   5.445223E+01   5.445223E+01   5.103894E+01   3.019554E+01   2.089291E+01   9.615914E+00   1.393457E+01   5.855306E+01   1.869725E+02   7.778956E+01   4.711710E+01   3.756952E+01   4.805896E+01   3.684193E+01   6.044101E+01   3.031382E+01   5.563194E+01   1.016426E+02   1.184827E+02   4.337736E+01   1.784210E+01   4.056480E+01   1.970841E+02   2.389967E+02   1.771447E+02   1.139212E+02   2.260891E+02   2.022137E+02   1.293810E+02   7.225800E+01   5.488039E+01   4.447383E+01   6.537583E+01   1.354791E+01   3.599285E+01   5.595688E+01   9.302116E+01   6.292357E+01   2.271351E+02   4.047289E+02   1.115619E+02
   1.183519E+02   9.140089E+01   5.684795E+01   8.759857E+01   7.371348E+01   1.249280E+02   3.666824E+01   5.870358E+01   3.025616E+01   3.229074E+01   1.156181E+02   2.827624E+01   4.473401E+01   1.549345E+02   3.468832E+02   2.742855E+02   1.049144E+02   9.189819E+01   4.055897E+01   1.676042E+01   2.484750E+01   3.348886E+01   5.613229E+01   6.909987E+01   2.215829E+02   4.562744E+02   1.538164E+02   8.785126E+01   3.882967E+01   5.264134E+01   2.299010E+02   5.033588E+02   7.513860E+02   6.368533E+02   3.436330E+02   2.226473E+02   6.248618E+01   4.211365E+01   4.265915E+01   6.312952E+01   3.859015E+01   4.541296E+01   3.009052E+02   1.856426E+02   2.225758E+02   1.449047E+02   6.301269E+01   9.743264E+01   5.844917E+01   8.512822E+01   1.487001E+02   1.062395E+02   1.254881E+02   1.519388E+02   6.428989E+01   2.676414E+01   2.556775E+01   3.607136E+01   4.823270E+01   3.740540E+01   3.424041E+01   7.257889E+01   1.621850E+01   2.858753E+01   1.110810E+01   2.368435E+01   1.310790E+01   2.300176E+01   2.418249E+01   3.624679E+01   3.697340E+01   7.176752E+01   1.141322E+02   3.198093E+01   3.620730E+01   7.691711E+01   2.058065E+02   1.964338E+02   4.824932E+01   5.051849E+01   4.476585E+01   5.360619E+01   1.179028E+01   2.296706E+01   7.468756E+01   2.339942E+01   7.533842E+01   6.521545E+01   2.286623E+01   8.855405E+01   8.855405E+01   7.408397E+01   2.388188E+01   2.388188E+01   4.379970E+01   1.911181E+01   1.911181E+01   1.041873E+01   1.041873E+01   1.041873E+01   2.119760E+01   2.119760E+01   2.119760E+01   5.215282E+01   5.215282E+01   5.215282E+01   5.215282E+01   5.215282E+01   9.553538E+01   9.553538E+01   9.553538E+01   9.553538E+01   9.553538E+01   9.719540E+01   9.719540E+01   9.719540E+01   9.719540E+01   9.719540E+01   9.719540E+01   9.719540E+01   4.511173E+01   4.511173E+01   4.511173E+01   4.511173E+01   4.511173E+01   4.511173E+01   4.511173E+01   4.511173E+01   4.511173E+01   4.511173E+01   6.042305E+01   6.042305E+01   6.042305E+01   6.042305E+01   6.042305E+01   6.042305E+01   6.042305E+01   6.042305E+01   6.042305E+01   6.703659E+01   6.703659E+01   6.703659E+01   6.703659E+01   6.703659E+01   6.703659E+01   6.703659E+01   1.043169E+02   1.043169E+02   1.043169E+02   1.043169E+02   1.043169E+02   4.435928E+01   4.435928E+01   4.435928E+01   4.435928E+01   4.095150E+01   4.095150E+01   4.095150E+01   3.611244E+01   3.611244E+01   3.393926E+01   3.393926E+01   5.278021E+01   5.278021E+01   1.138402E+02   1.598082E+02   1.794921E+02   1.794921E+02   6.972440E+01   2.145704E+01   1.522303E+01   1.262662E+01   1.565015E+01   5.983154E+01   2.394023E+02   1.042702E+02   5.249487E+01   3.877811E+01   2.754517E+01   6.295085E+01   4.817412E+01   4.598400E+01   6.637851E+01   9.334840E+01   9.350562E+01   2.600096E+01   2.075111E+01   2.229344E+01   1.345907E+02   3.870729E+02   1.651801E+02   1.270146E+02   9.233994E+01   1.112270E+02   1.040784E+02   1.141421E+02   4.734765E+01   1.056113E+02   1.050361E+02   4.564711E+01   1.290845E+01   5.412785E+01   1.505728E+02   9.268983E+01   2.614757E+02   2.424114E+02   1.789181E+02
   8.126775E+01   1.270293E+02   3.393975E+01   3.437930E+01   4.593655E+01   1.041161E+02   5.787239E+01   1.179343E+02   1.541781E+02   6.449295E+01   7.718812E+01   2.089335E+01   5.177876E+01   9.987144E+01   1.359167E+02   1.999448E+02   1.351340E+02   9.512013E+01   3.966543E+01   1.345314E+01   1.961319E+01   3.136766E+01   8.240108E+01   1.376951E+02   2.848362E+02   1.231316E+02   1.734727E+02   9.346507E+01   9.692984E+01   1.227633E+02   7.943303E+01   7.377958E+02   1.009796E+03   5.050450E+02   3.609185E+02   2.718528E+02   8.911532E+01   3.525811E+01   4.981569E+01   6.273573E+01   8.534549E+01   8.902029E+01   2.733416E+02   1.550322E+02   1.844097E+02   9.015718E+01   6.692137E+01   3.970449E+01   2.295729E+01   6.256085E+01   8.881778E+01   8.677500E+01   1.805017E+02   1.333306E+02   9.773035E+01   3.317271E+01   5.194209E+01   3.633932E+01   2.036418E+01   4.513326E+01   7.734750E+01   1.008251E+02   3.183224E+01   3.186675E+01   3.457755E+01   1.154532E+01   1.402698E+01   1.497725E+01   3.477648E+01   2.224993E+01   4.078983E+01   5.513657E+01   4.827634E+01   2.497723E+01   3.675366E+01   3.961606E+01   1.108250E+02   2.583978E+02   7.927099E+01   5.507671E+01   2.419937E+01   2.285851E+01   2.800104E+01   5.680860E+01   1.126094E+02   3.553171E+01   7.665783E+01   8.023402E+01   4.267379E+01   5.082076E+01   5.082076E+01   5.698150E+01   6.042274E+01   6.042274E+01   8.896502E+01   3.375881E+01   3.375881E+01   1.584866E+01   1.584866E+01   1.584866E+01   3.181154E+01   3.181154E+01   3.181154E+01   5.473857E+01   5.473857E+01   5.473857E+01   5.473857E+01   5.473857E+01   9.971288E+01   9.971288E+01   9.971288E+01   9.971288E+01   9.971288E+01   1.417197E+02   1.417197E+02   1.417197E+02   1.417197E+02   1.417197E+02   1.417197E+02   1.417197E+02   6.801154E+01   6.801154E+01   6.801154E+01   6.801154E+01   6.801154E+01   6.801154E+01   6.801154E+01   6.801154E+01   6.801154E+01   6.801154E+01   2.242897E+01   2.242897E+01   2.242897E+01   2.242897E+01   2.242897E+01   2.242897E+01   2.242897E+01   2.242897E+01   2.242897E+01   2.373234E+01   2.373234E+01   2.373234E+01   2.373234E+01   2.373234E+01   2.373234E+01   2.373234E+01   5.694047E+01   5.694047E+01   5.694047E+01   5.694047E+01   5.694047E+01   3.905030E+01   3.905030E+01   3.905030E+01   3.905030E+01   4.071000E+01   4.071000E+01   4.071000E+01   1.131519E+02   1.131519E+02   6.292173E+01   6.292173E+01   8.963441E+01   8.963441E+01   1.510260E+02   2.271007E+02   1.916369E+02   1.916369E+02   5.877117E+01   2.954846E+01   2.040264E+01   7.426293E+00   1.471628E+01   8.706289E+01   9.969807E+01   1.626511E+02   2.688813E+01   2.340114E+01   3.329617E+01   3.021118E+01   1.969797E+01   4.227332E+01   7.820149E+01   5.814661E+01   1.062076E+02   3.680141E+01   8.097987E+01   3.526709E+01   1.214830E+02   4.959815E+02   2.175195E+02   1.854583E+02   7.605609E+01   5.034734E+01   7.514547E+01   1.462885E+02   7.398977E+01   8.886471E+01   1.311376E+02   3.269269E+01   3.263979E+01   7.668324E+01   1.699007E+02   1.371699E+02   1.746085E+02   1.552140E+02   1.673804E+02
   4.581743E+01   7.900577E+01   2.634849E+01   3.282455E+01   1.025754E+02   9.724265E+01   6.008689E+01   8.379703E+01   8.671505E+02   1.962133E+02   8.738911E+01   3.304512E+01   7.432641E+01   1.653611E+02   4.702696E+01   1.032064E+02   1.617526E+02   1.546657E+02   6.586652E+01   1.441286E+01   2.175390E+01   4.595570E+01   7.473628E+01   1.803044E+02   1.292594E+02   1.575667E+02   1.199283E+02   7.517625E+01   7.741161E+01   9.875578E+01   1.811699E+02   4.136267E+02   6.530225E+02   2.527068E+02   3.555396E+02   2.177556E+02   8.050047E+01   4.266745E+01   4.874967E+01   1.121284E+02   1.477110E+02   1.845587E+02   1.011285E+02   1.526554E+02   2.614064E+02   1.381338E+02   4.109963E+01   1.559664E+02   2.131975E+01   5.235345E+01   5.262716E+01   7.593569E+01   1.397580E+02   1.033605E+02   8.403398E+01   3.928320E+01   3.759532E+01   5.562183E+01   4.839494E+01   7.456716E+01   4.084623E+01   3.871690E+01   1.502331E+01   3.309230E+01   5.022793E+01   1.158344E+01   1.678962E+01   2.169683E+01   2.316699E+01   3.693748E+01   1.113025E+02   3.747898E+01   1.183914E+01   8.884963E+00   1.997071E+01   3.827433E+01   9.790154E+01   1.473715E+02   1.858524E+02   4.179069E+01   1.106802E+01   2.045296E+01   3.321596E+01   4.226228E+01   1.344075E+02   1.949443E+02   5.736355E+01   1.345835E+02   9.074001E+01   5.307650E+01   5.307650E+01   4.363717E+01   1.191077E+02   1.191077E+02   7.872728E+01   3.392463E+01   3.392463E+01   3.541628E+01   3.541628E+01   3.541628E+01   4.357946E+01   4.357946E+01   4.357946E+01   6.257680E+01   6.257680E+01   6.257680E+01   6.257680E+01   6.257680E+01   1.304444E+02   1.304444E+02   1.304444E+02   1.304444E+02   1.304444E+02   7.878283E+01   7.878283E+01   7.878283E+01   7.878283E+01   7.878283E+01   7.878283E+01   7.878283E+01   8.494953E+01   8.494953E+01   8.494953E+01   8.494953E+01   8.494953E+01   8.494953E+01   8.494953E+01   8.494953E+01   8.494953E+01   8.494953E+01   2.527706E+01   2.527706E+01   2.527706E+01   2.527706E+01   2.527706E+01   2.527706E+01   2.527706E+01   2.527706E+01   2.527706E+01   1.001586E+01   1.001586E+01   1.001586E+01   1.001586E+01   1.001586E+01   1.001586E+01   1.001586E+01   3.305350E+01   3.305350E+01   3.305350E+01   3.305350E+01   3.305350E+01   2.150067E+01   2.150067E+01   2.150067E+01   2.150067E+01   8.659772E+01   8.659772E+01   8.659772E+01   1.020028E+02   1.020028E+02   6.920383E+01   6.920383E+01   8.132324E+01   8.132324E+01   8.679542E+01   8.811949E+01   8.690510E+01   8.690510E+01   7.924110E+01   3.895198E+01   1.752659E+01   1.725689E+01   1.495791E+01   1.105185E+02   7.309657E+01   1.270162E+02   6.332677E+01   2.203400E+01   2.957523E+01   2.019853E+01   2.386286E+01   3.278101E+01   1.395856E+02   4.646497E+01   6.942737E+01   4.451886E+01   5.620578E+01   4.597257E+01   9.586550E+01   3.713343E+02   3.810973E+02   2.039655E+02   9.093251E+01   1.618052E+02   4.750751E+01   5.241135E+01   1.319338E+02   1.455652E+02   1.183262E+02   4.954245E+01   4.719535E+01   5.816096E+01   1.226386E+02   4.961663E+01   1.005337E+02   8.912027E+01   4.081109E+02
   3.994795E+01   3.820179E+01   5.604704E+01   3.776329E+01   8.421072E+01   1.048533E+02   8.076995E+01   1.311414E+02   3.856980E+02   7.753685E+01   1.112062E+02   6.048966E+01   7.168445E+01   1.721593E+02   9.183450E+01   2.015569E+02   7.314358E+01   1.541281E+02   7.952135E+01   2.115510E+01   2.306908E+01   8.114783E+01   1.078173E+02   4.730210E+02   1.553083E+02   2.225088E+02   8.145348E+01   3.002293E+01   3.550687E+01   5.367413E+01   1.673161E+02   1.907040E+02   5.904704E+02   2.005835E+02   1.369065E+02   2.236947E+02   8.942754E+01   6.786009E+01   1.137460E+02   1.445472E+02   1.626767E+02   2.993192E+02   1.118246E+02   1.300608E+02   1.683161E+02   9.186143E+01   8.312939E+01   7.209324E+01   7.325068E+01   3.786086E+01   9.138440E+01   1.221248E+02   9.245195E+01   7.999153E+01   8.723863E+01   4.771336E+01   8.866457E+01   8.308336E+01   4.844529E+01   7.089591E+01   9.722279E+01   9.462927E+01   4.679478E+01   4.575523E+01   4.466000E+01   1.450687E+01   1.381162E+01   3.877353E+01   3.390903E+01   7.273418E+01   4.614893E+01   1.702745E+01   1.099612E+01   1.330953E+01   1.025079E+01   2.009440E+01   7.391531E+01   1.200629E+02   1.723071E+02   3.507945E+01   1.704492E+01   2.253583E+01   3.445319E+01   2.854054E+01   8.074821E+01   1.361153E+02   1.179918E+02   1.058615E+02   4.832696E+01   4.894384E+01   4.894384E+01   3.018354E+01   1.355391E+02   1.355391E+02   6.480141E+01   3.786384E+01   3.786384E+01   2.408288E+01   2.408288E+01   2.408288E+01   1.546186E+01   1.546186E+01   1.546186E+01   5.706562E+01   5.706562E+01   5.706562E+01   5.706562E+01   5.706562E+01   8.346046E+01   8.346046E+01   8.346046E+01   8.346046E+01   8.346046E+01   1.522211E+02   1.522211E+02   1.522211E+02   1.522211E+02   1.522211E+02   1.522211E+02   1.522211E+02   9.834975E+01   9.834975E+01   9.834975E+01   9.834975E+01   9.834975E+01   9.834975E+01   9.834975E+01   9.834975E+01   9.834975E+01   9.834975E+01   6.238894E+01   6.238894E+01   6.238894E+01   6.238894E+01   6.238894E+01   6.238894E+01   6.238894E+01   6.238894E+01   6.238894E+01   3.145031E+01   3.145031E+01   3.145031E+01   3.145031E+01   3.145031E+01   3.145031E+01   3.145031E+01   4.094619E+01   4.094619E+01   4.094619E+01   4.094619E+01   4.094619E+01   2.711106E+01   2.711106E+01   2.711106E+01   2.711106E+01   6.827132E+01   6.827132E+01   6.827132E+01   6.938815E+01   6.938815E+01   3.247094E+01   3.247094E+01   6.443913E+01   6.443913E+01   1.133709E+02   5.333531E+01   8.227714E+01   8.227714E+01   7.203104E+01   7.782836E+01   3.697740E+01   2.534759E+01   1.974066E+01   1.049891E+02   1.320928E+02   8.307931E+01   1.123467E+02   4.301918E+01   2.455894E+01   1.933874E+01   3.216154E+01   7.513561E+01   8.646355E+01   5.970152E+01   7.176003E+01   1.637424E+01   3.591240E+01   6.000740E+01   1.458826E+02   2.113850E+02   2.455993E+02   1.208574E+02   4.066050E+01   1.188696E+02   1.699362E+01   6.434113E+01   1.769785E+02   1.175149E+02   4.226559E+01   2.257996E+01   4.175130E+01   8.346191E+01   1.959031E+02   2.240678E+01   4.234260E+01   6.101342E+01   1.821944E+02
   7.396033E+01   3.184514E+01   4.397071E+01   2.956734E+01   3.171366E+01   1.079042E+02   7.698975E+01   1.614494E+02   2.858440E+02   1.133836E+02   8.475677E+01   3.863343E+01   1.286141E+02   4.108287E+02   1.586996E+02   1.404997E+02   1.570854E+02   3.150417E+02   1.149737E+02   2.477346E+01   5.058854E+01   1.193997E+02   5.111341E+02   5.194845E+02   2.023652E+02   2.126509E+02   2.849169E+01   5.037753E+01   2.056047E+01   3.865610E+01   1.457106E+02   6.697527E+01   1.705403E+02   1.636661E+02   2.031193E+02   4.941546E+02   1.499213E+02   8.054861E+01   1.409794E+02   4.304348E+02   2.189737E+02   3.612499E+02   1.335813E+02   7.279665E+01   1.442564E+02   7.346048E+01   8.125179E+01   6.192082E+01   5.406443E+01   7.965351E+01   1.141178E+02   1.237116E+02   3.525636E+01   4.866903E+01   3.277510E+01   2.823633E+01   1.109879E+02   5.723481E+01   4.016145E+01   1.108068E+02   2.299537E+02   7.173123E+01   3.412745E+01   4.129534E+01   3.089895E+01   1.074997E+01   3.948022E+01   6.056268E+01   4.527196E+01   4.736127E+01   5.476589E+01   5.923652E+00   1.114067E+01   1.203227E+01   1.346814E+01   3.851522E+01   1.033439E+02   9.465968E+01   1.155612E+02   4.723729E+01   2.059573E+01   2.303134E+01   4.025588E+01   3.780234E+01   9.268116E+01   1.382616E+02   1.460943E+02   6.837698E+01   9.371762E+01   7.538734E+01   7.538734E+01   2.578381E+01   1.302368E+02   1.302368E+02   1.012681E+02   2.409796E+01   2.409796E+01   1.511970E+01   1.511970E+01   1.511970E+01   2.460607E+01   2.460607E+01   2.460607E+01   1.161339E+02   1.161339E+02   1.161339E+02   1.161339E+02   1.161339E+02   7.126771E+01   7.126771E+01   7.126771E+01   7.126771E+01   7.126771E+01   7.941040E+01   7.941040E+01   7.941040E+01   7.941040E+01   7.941040E+01   7.941040E+01   7.941040E+01   8.139824E+01   8.139824E+01   8.139824E+01   8.139824E+01   8.139824E+01   8.139824E+01   8.139824E+01   8.139824E+01   8.139824E+01   8.139824E+01   1.569893E+02   1.569893E+02   1.569893E+02   1.569893E+02   1.569893E+02   1.569893E+02   1.569893E+02   1.569893E+02   1.569893E+02   2.561609E+01   2.561609E+01   2.561609E+01   2.561609E+01   2.561609E+01   2.561609E+01   2.561609E+01   4.020823E+01   4.020823E+01   4.020823E+01   4.020823E+01   4.020823E+01   4.822054E+01   4.822054E+01   4.822054E+01   4.822054E+01   3.611958E+01   3.611958E+01   3.611958E+01   7.127108E+01   7.127108E+01   3.116437E+01   3.116437E+01   4.126683E+01   4.126683E+01   6.659247E+01   1.852150E+01   3.005322E+01   3.005322E+01   6.961290E+01   8.077949E+01   2.408763E+01   2.160338E+01   3.927782E+01   1.472634E+02   1.537870E+02   1.039094E+02   1.375546E+02   2.858396E+01   2.528594E+01   1.637251E+01   5.076574E+01   1.045548E+02   4.741468E+01   8.803374E+01   8.058057E+01   2.019399E+01   4.349973E+01   1.043980E+02   8.121922E+01   1.719232E+02   2.470942E+02   1.236161E+02   7.126220E+01   1.699944E+02   2.690790E+01   8.293787E+01   1.209680E+02   1.691904E+02   2.577513E+01   6.717788E+01   9.794108E+01   8.975137E+01   2.380706E+02   3.196884E+01   7.806197E+01   1.156032E+02   9.498050E+01
   4.466521E+01   1.211998E+01   2.361292E+01   1.836234E+01   3.289949E+01   8.131249E+01   1.137878E+02   3.233545E+02   1.508939E+02   6.642405E+01   9.711157E+01   6.483501E+01   1.241373E+02   2.389562E+02   2.669663E+02   1.236909E+02   2.578508E+02   2.042265E+02   5.266903E+01   2.501204E+01   1.104402E+02   1.360139E+02   4.110570E+02   5.281708E+02   1.896801E+02   1.878781E+02   4.679812E+01   6.159982E+01   1.845809E+01   4.565868E+01   1.252392E+02   7.675294E+01   2.604418E+02   4.812843E+02   2.945084E+02   3.939280E+02   1.482111E+02   8.368436E+01   8.122010E+01   2.902008E+02   2.518676E+02   3.919439E+02   1.298927E+02   8.245889E+01   1.582115E+02   1.049017E+02   5.745517E+01   4.270827E+01   6.275190E+01   6.768121E+01   1.259879E+02   1.536628E+02   4.284711E+01   3.216396E+01   1.266995E+01   3.846993E+01   1.605550E+02   5.178658E+01   5.562291E+01   1.718855E+02   1.232163E+02   4.771959E+01   3.323228E+01   2.654283E+01   7.001931E+01   8.476053E+00   5.117012E+01   7.425442E+01   4.842701E+01   4.233539E+01   3.044661E+01   7.599772E+00   6.596468E+00   1.567904E+01   1.382709E+01   2.399017E+01   8.273785E+01   7.534686E+01   1.085053E+02   4.501972E+01   1.514412E+01   2.045231E+01   5.614964E+01   5.897730E+01   1.442497E+02   1.055279E+02   1.258410E+02   7.613468E+01   1.230563E+02   8.814006E+01   8.814006E+01   5.753019E+01   1.523764E+02   1.523764E+02   6.463403E+01   1.342124E+01   1.342124E+01   1.349086E+01   1.349086E+01   1.349086E+01   3.628938E+01   3.628938E+01   3.628938E+01   4.005920E+01   4.005920E+01   4.005920E+01   4.005920E+01   4.005920E+01   5.025803E+01   5.025803E+01   5.025803E+01   5.025803E+01   5.025803E+01   6.455120E+01   6.455120E+01   6.455120E+01   6.455120E+01   6.455120E+01   6.455120E+01   6.455120E+01   4.510091E+01   4.510091E+01   4.510091E+01   4.510091E+01   4.510091E+01   4.510091E+01   4.510091E+01   4.510091E+01   4.510091E+01   4.510091E+01   2.756441E+02   2.756441E+02   2.756441E+02   2.756441E+02   2.756441E+02   2.756441E+02   2.756441E+02   2.756441E+02   2.756441E+02   8.926654E+01   8.926654E+01   8.926654E+01   8.926654E+01   8.926654E+01   8.926654E+01   8.926654E+01   3.459053E+01   3.459053E+01   3.459053E+01   3.459053E+01   3.459053E+01   2.386266E+01   2.386266E+01   2.386266E+01   2.386266E+01   2.839484E+01   2.839484E+01   2.839484E+01   1.027930E+02   1.027930E+02   3.603342E+01   3.603342E+01   2.874096E+01   2.874096E+01   2.534349E+01   1.490294E+01   2.573450E+01   2.573450E+01   2.374985E+01   4.876047E+01   3.433759E+01   3.315145E+01   4.197890E+01   6.390787E+01   1.043286E+02   8.171832E+01   5.118093E+01   1.630047E+01   2.181778E+01   2.285322E+01   6.329057E+01   1.559145E+02   4.213044E+01   1.249649E+02   5.497115E+01   2.041372E+01   3.743982E+01   5.143207E+01   9.046915E+01   2.437914E+02   1.118978E+02   1.184859E+02   1.130519E+02   1.070925E+02   4.400323E+01   4.135114E+01   7.036475E+01   1.252733E+02   4.499603E+01   6.822517E+01   2.753961E+01   1.093174E+02   4.792173E+02   9.657316E+01   1.083090E+02   1.592343E+02   1.293720E+02