# LPF package for  MODFLOW-2005, generated by Flopy.
        53    -1E+30         0  
         1
         0
   0.000000E+00
         0
         0
INTERNAL               1 (207E15.6) -1 #hk layer 1                    
   1.713473E+02   2.371042E+02   1.483519E+02   9.515485E+01   1.127730E+02   9.200726E+01   6.413871E+01   1.770555E+02   1.383618E+02   1.639797E+02   2.934697E+01   4.861781E+01   4.889933E+01   6.867486E+01   1.708961E+02   1.531202E+02   5.199696E+01   7.613223E+01   1.197693E+02   8.454862E+01   6.424375E+01   5.859763E+01   1.357126E+02   1.842257E+02   1.125053E+02   7.848712E+01   2.855046E+01   1.768305E+01   6.396198E+01   3.812777E+01   7.462736E+01   4.045833E+02   2.278761E+02   3.152072E+02   3.004750E+02   8.731042E+01   1.451964E+02   3.062909E+02   4.249262E+02   3.792730E+02   9.621338E+01   2.513095E+01   8.081609E+01   6.254765E+01   4.210485E+01   4.946875E+01   7.737625E+01   3.395233E+01   3.865277E+01   2.417492E+01   6.136777E+01   7.492429E+01   7.951966E+01   3.794038E+01   4.751241E+01   2.074840E+01   3.767837E+01   1.570184E+01   2.080411E+01   4.740247E+01   4.368061E+01   2.666383E+01   2.268888E+01   4.581570E+01   9.964256E+01   5.988461E+01   5.536845E+01   1.060464E+02   7.420946E+01   6.037554E+01   2.011781E+02   1.723994E+02   6.166473E+01   1.261655E+02   2.536345E+01   5.036112E+01   3.553842E+01   4.991948E+01   6.325662E+01   6.601501E+01   1.717446E+02   1.160316E+02   9.448802E+01   9.495891E+01   5.252191E+01   3.338971E+01   1.959324E+01   1.978011E+01   5.486388E+01   2.019948E+01   2.019948E+01   4.041360E+01   1.153732E+02   1.153732E+02   1.961917E+02   6.986359E+01   6.986359E+01   6.710114E+01   6.710114E+01   6.710114E+01   4.280808E+01   4.280808E+01   4.280808E+01   1.407305E+02   1.407305E+02   1.407305E+02   1.407305E+02   1.407305E+02   2.482340E+02   2.482340E+02   2.482340E+02   2.482340E+02   2.482340E+02   2.333509E+02   2.333509E+02   2.333509E+02   2.333509E+02   2.333509E+02   2.333509E+02   2.333509E+02   1.878356E+02   1.878356E+02   1.878356E+02   1.878356E+02   1.878356E+02   1.878356E+02   1.878356E+02   1.878356E+02   1.878356E+02   1.878356E+02   2.584291E+02   2.584291E+02   2.584291E+02   2.584291E+02   2.584291E+02   2.584291E+02   2.584291E+02   2.584291E+02   2.584291E+02   1.298038E+02   1.298038E+02   1.298038E+02   1.298038E+02   1.298038E+02   1.298038E+02   1.298038E+02   2.325922E+02   2.325922E+02   2.325922E+02   2.325922E+02   2.325922E+02   7.880907E+01   7.880907E+01   7.880907E+01   7.880907E+01   2.171323E+02   2.171323E+02   2.171323E+02   2.076866E+02   2.076866E+02   2.392403E+02   2.392403E+02   5.476145E+01   5.476145E+01   3.533231E+01   4.214170E+01   3.986703E+01   3.986703E+01   5.998616E+01   3.129947E+01   4.345232E+01   4.168289E+01   7.717062E+01   1.392818E+01   2.027023E+01   4.156522E+01   3.681678E+01   4.531160E+01   5.403919E+01   1.043166E+02   4.254783E+01   2.402703E+01   1.544666E+02   1.506531E+02   1.354338E+02   3.693578E+02   1.742348E+02   1.613536E+02   8.958379E+01   1.054723E+02   6.679182E+01   1.358629E+02   9.057268E+01   5.697647E+01   1.177264E+02   4.776464E+01   2.036145E+02   2.847054E+02   2.404733E+02   1.960808E+02   1.336462E+02   1.983224E+02   2.416593E+02   2.110528E+03   1.909075E+03   4.565775E+02   1.840898E+02
   1.062698E+02   1.756632E+02   1.082684E+02   1.471589E+02   6.230724E+01   6.225803E+01   6.571178E+01   2.953844E+02   2.600398E+02   1.586899E+02   5.196645E+01   5.343286E+01   3.075570E+01   9.966169E+01   1.270528E+02   6.020649E+01   5.604622E+01   7.317702E+01   1.357972E+02   6.191340E+01   9.854278E+01   1.456917E+02   2.298519E+02   3.035317E+02   1.725517E+02   1.438272E+02   3.345933E+01   1.745605E+01   4.353594E+01   2.332435E+01   1.316139E+02   1.745151E+02   1.561224E+02   2.882546E+02   3.909883E+02   7.117695E+01   1.828108E+02   7.631709E+02   3.733779E+02   1.975081E+02   7.618151E+01   7.482461E+01   1.001784E+02   5.299431E+01   1.206298E+02   7.261619E+01   1.066463E+02   5.564904E+01   4.811116E+01   2.202935E+01   1.132571E+02   1.483146E+02   9.142969E+01   6.820241E+01   3.103636E+01   3.293192E+01   2.547142E+01   2.681586E+01   1.654386E+01   3.148479E+01   2.892118E+01   7.889623E+00   2.640573E+01   4.135121E+01   1.294930E+02   7.067843E+01   5.927993E+01   1.411342E+02   8.547682E+01   5.455142E+01   1.155573E+02   5.034283E+01   7.514744E+01   5.627082E+01   2.575668E+01   2.265298E+01   2.265914E+01   4.342672E+01   7.862841E+01   6.947335E+01   8.324510E+01   9.015576E+01   1.177518E+02   7.484266E+01   4.660041E+01   4.667363E+01   1.904887E+01   2.956990E+01   7.303873E+01   3.313947E+01   3.313947E+01   4.947355E+01   2.610627E+02   2.610627E+02   2.387190E+02   5.740248E+01   5.740248E+01   3.734875E+01   3.734875E+01   3.734875E+01   7.626323E+01   7.626323E+01   7.626323E+01   6.699402E+01   6.699402E+01   6.699402E+01   6.699402E+01   6.699402E+01   1.825234E+02   1.825234E+02   1.825234E+02   1.825234E+02   1.825234E+02   1.654803E+02   1.654803E+02   1.654803E+02   1.654803E+02   1.654803E+02   1.654803E+02   1.654803E+02   1.606295E+02   1.606295E+02   1.606295E+02   1.606295E+02   1.606295E+02   1.606295E+02   1.606295E+02   1.606295E+02   1.606295E+02   1.606295E+02   1.448491E+02   1.448491E+02   1.448491E+02   1.448491E+02   1.448491E+02   1.448491E+02   1.448491E+02   1.448491E+02   1.448491E+02   2.342361E+02   2.342361E+02   2.342361E+02   2.342361E+02   2.342361E+02   2.342361E+02   2.342361E+02   1.155011E+02   1.155011E+02   1.155011E+02   1.155011E+02   1.155011E+02   3.905517E+02   3.905517E+02   3.905517E+02   3.905517E+02   2.553584E+02   2.553584E+02   2.553584E+02   3.056260E+02   3.056260E+02   2.319996E+02   2.319996E+02   2.397636E+02   2.397636E+02   5.400091E+01   2.701322E+01   3.996054E+01   3.996054E+01   1.633921E+01   4.233773E+01   4.304564E+01   6.135223E+01   3.487403E+01   2.011542E+01   1.997628E+01   5.101517E+01   6.131351E+01   6.171131E+01   6.506062E+01   1.181285E+02   1.148973E+02   3.653527E+01   8.354592E+01   2.647299E+01   5.713432E+01   1.197016E+02   3.681750E+01   7.781751E+01   1.275385E+02   8.432635E+01   5.554823E+01   6.259204E+01   1.211183E+02   7.568085E+01   1.172349E+02   1.242575E+02   2.169912E+02   2.918992E+02   1.764383E+02   1.267925E+02   7.766420E+01   1.542399E+02   3.518869E+02   2.478756E+03   2.951250E+03   6.023869E+02   3.643363E+02
   9.679710E+01   1.108439E+02   7.713120E+01   1.249143E+02   3.952840E+01   4.703551E+01   5.179467E+01   9.052842E+01   4.737983E+02   1.884127E+02   5.249963E+01   6.261772E+01   9.590223E+01   1.063732E+02   1.056437E+02   7.049615E+01   1.004864E+02   9.448919E+01   2.754042E+02   7.955673E+01   2.171293E+02   4.598021E+02   5.359849E+02   1.934355E+02   1.703485E+02   2.914821E+02   5.410466E+01   4.817820E+01   3.921628E+01   7.760018E+01   3.538597E+01   9.902954E+01   7.858293E+01   1.727734E+02   1.902788E+02   1.525181E+02   1.441003E+02   4.250418E+02   4.098005E+02   2.036147E+02   1.320075E+02   9.534144E+01   7.602985E+01   3.936496E+01   3.761559E+01   4.128180E+01   3.249658E+01   1.066724E+02   8.639150E+01   5.607380E+01   9.708770E+01   1.717439E+02   7.763421E+01   3.615761E+01   3.184885E+01   3.283148E+01   3.884433E+01   4.062002E+01   2.143683E+01   1.410859E+01   4.147509E+01   9.228537E+00   3.338566E+01   3.767849E+01   1.415778E+02   8.915662E+01   1.034361E+02   8.724770E+01   9.127042E+01   1.047946E+02   5.508508E+01   7.213605E+01   1.656828E+02   5.817984E+01   7.206004E+01   3.058978E+01   2.602594E+01   2.755947E+01   4.325612E+01   2.011346E+01   7.019427E+01   5.424498E+01   9.353959E+01   3.501390E+01   4.408285E+01   3.545848E+01   2.265726E+01   1.633294E+01   4.499148E+01   2.191256E+01   2.191256E+01   6.492377E+01   3.369190E+02   3.369190E+02   1.636180E+02   9.311933E+01   9.311933E+01   9.140472E+01   9.140472E+01   9.140472E+01   1.076520E+02   1.076520E+02   1.076520E+02   8.204662E+01   8.204662E+01   8.204662E+01   8.204662E+01   8.204662E+01   2.037172E+02   2.037172E+02   2.037172E+02   2.037172E+02   2.037172E+02   2.389043E+02   2.389043E+02   2.389043E+02   2.389043E+02   2.389043E+02   2.389043E+02   2.389043E+02   4.920036E+01   4.920036E+01   4.920036E+01   4.920036E+01   4.920036E+01   4.920036E+01   4.920036E+01   4.920036E+01   4.920036E+01   4.920036E+01   1.170436E+02   1.170436E+02   1.170436E+02   1.170436E+02   1.170436E+02   1.170436E+02   1.170436E+02   1.170436E+02   1.170436E+02   6.011986E+01   6.011986E+01   6.011986E+01   6.011986E+01   6.011986E+01   6.011986E+01   6.011986E+01   1.728972E+02   1.728972E+02   1.728972E+02   1.728972E+02   1.728972E+02   1.165306E+02   1.165306E+02   1.165306E+02   1.165306E+02   2.015880E+02   2.015880E+02   2.015880E+02   2.179101E+02   2.179101E+02   2.223273E+02   2.223273E+02   1.711737E+02   1.711737E+02   8.861875E+01   2.553910E+01   1.551885E+01   1.551885E+01   2.160171E+01   4.705372E+01   7.393510E+01   7.548727E+01   1.280647E+01   1.597631E+01   1.970718E+01   5.584954E+01   1.197024E+02   9.502107E+01   2.684793E+01   1.338539E+02   8.281780E+01   2.901882E+01   4.141050E+01   1.523872E+01   5.502821E+01   4.572208E+01   5.884452E+01   1.097921E+02   7.605236E+01   1.569986E+02   1.528444E+02   1.585948E+02   5.320639E+01   1.312753E+02   1.349104E+02   1.502209E+02   1.020884E+02   1.205140E+02   8.767347E+01   1.173413E+02   4.895678E+01   1.362901E+02   3.963724E+02   6.370592E+02   7.640516E+02   9.471029E+02   3.803952E+02
   1.280122E+02   2.397404E+02   1.786848E+02   8.662782E+01   4.647868E+01   1.766222E+01   7.418996E+01   5.999758E+01   2.332123E+02   2.939799E+02   1.074135E+02   1.159667E+02   1.712122E+02   7.501683E+01   1.885328E+02   7.724667E+01   1.486812E+02   1.426715E+02   4.139269E+02   3.445260E+02   3.819890E+02   7.975625E+02   4.660447E+02   2.415754E+02   6.534062E+02   3.118588E+02   1.301348E+02   4.090458E+01   5.466108E+01   6.481721E+01   5.653398E+01   6.618673E+01   8.209613E+01   3.287238E+02   3.947547E+02   1.960222E+02   1.437133E+02   4.234513E+02   1.376016E+02   8.661201E+01   1.441775E+02   5.719458E+01   1.095762E+02   2.966369E+01   8.630867E+01   5.152200E+01   2.663748E+01   7.690114E+01   9.124794E+01   6.161341E+01   7.875595E+01   8.576360E+01   5.506134E+01   3.162245E+01   5.785212E+01   5.787381E+01   6.116634E+01   3.281586E+01   1.944873E+01   1.707712E+01   4.170050E+01   1.542718E+01   1.251945E+01   3.390971E+01   1.241657E+02   9.541232E+01   1.939041E+02   1.618241E+02   9.263852E+01   6.039326E+01   4.758600E+01   6.350258E+01   2.018575E+02   8.033179E+01   6.619943E+01   6.174102E+01   1.443079E+01   2.541881E+01   4.055643E+01   2.044571E+01   4.415765E+01   6.543902E+01   7.879429E+01   6.448651E+01   3.120315E+01   3.354484E+01   5.480712E+01   5.389209E+01   9.478657E+01   8.076971E+01   8.076971E+01   1.502670E+02   2.457245E+02   2.457245E+02   8.650238E+01   6.240651E+01   6.240651E+01   3.472738E+01   3.472738E+01   3.472738E+01   1.335029E+02   1.335029E+02   1.335029E+02   1.505616E+02   1.505616E+02   1.505616E+02   1.505616E+02   1.505616E+02   6.466728E+01   6.466728E+01   6.466728E+01   6.466728E+01   6.466728E+01   7.994334E+01   7.994334E+01   7.994334E+01   7.994334E+01   7.994334E+01   7.994334E+01   7.994334E+01   4.220573E+01   4.220573E+01   4.220573E+01   4.220573E+01   4.220573E+01   4.220573E+01   4.220573E+01   4.220573E+01   4.220573E+01   4.220573E+01   4.974852E+01   4.974852E+01   4.974852E+01   4.974852E+01   4.974852E+01   4.974852E+01   4.974852E+01   4.974852E+01   4.974852E+01   1.365903E+01   1.365903E+01   1.365903E+01   1.365903E+01   1.365903E+01   1.365903E+01   1.365903E+01   1.082468E+02   1.082468E+02   1.082468E+02   1.082468E+02   1.082468E+02   6.324535E+01   6.324535E+01   6.324535E+01   6.324535E+01   1.883162E+02   1.883162E+02   1.883162E+02   3.642528E+02   3.642528E+02   1.883676E+02   1.883676E+02   2.056439E+02   2.056439E+02   5.314948E+01   2.425300E+01   9.660250E+00   9.660250E+00   1.200081E+01   3.303469E+01   1.549833E+02   6.170057E+01   1.007179E+01   1.029902E+01   9.104810E+00   6.069242E+01   1.055408E+02   5.927911E+01   2.272908E+01   7.053857E+01   4.409785E+01   3.845504E+01   1.147839E+01   1.484502E+01   5.099957E+01   3.704388E+01   7.932496E+01   9.620039E+01   9.745073E+01   1.264025E+02   6.744744E+01   1.388234E+02   4.571649E+01   1.545193E+02   9.373840E+01   4.806708E+01   1.470786E+02   7.693929E+01   1.871219E+02   9.943260E+01   7.126237E+01   9.685437E+01   4.723630E+02   3.615546E+02   5.158624E+02   4.885179E+02   2.519555E+02
   4.143066E+02   3.975153E+02   1.576737E+02   3.286361E+01   5.662374E+01   1.897324E+01   5.137238E+01   5.520790E+01   1.687628E+02   2.623081E+02   1.635349E+02   1.160365E+02   1.942125E+02   1.500534E+02   1.320107E+02   9.621114E+01   1.108524E+02   1.497191E+02   6.145626E+02   3.273111E+02   4.238506E+02   6.857088E+02   4.449724E+02   3.053022E+02   6.952443E+02   5.307169E+02   8.797700E+01   3.137660E+01   5.500679E+01   9.386834E+01   7.229410E+01   3.286425E+01   1.591845E+02   1.707302E+02   2.169348E+02   1.433357E+02   1.073715E+02   3.419377E+02   1.567521E+02   1.012496E+02   4.019241E+01   5.047442E+01   9.118587E+01   3.992529E+01   5.645765E+01   7.060464E+01   7.019775E+01   7.547891E+01   1.055292E+02   1.834996E+02   1.060120E+02   5.081924E+01   3.470241E+01   3.894126E+01   2.440324E+01   6.821423E+01   5.154823E+01   5.587815E+01   2.558096E+01   1.477494E+01   1.563126E+01   1.884745E+01   9.825093E+00   3.001660E+01   1.308712E+02   8.034489E+01   1.409140E+02   3.109038E+02   1.838220E+02   8.780495E+01   1.755701E+02   8.883604E+01   1.141908E+02   9.672728E+01   7.022034E+01   1.176761E+02   2.320214E+01   2.797165E+01   3.294812E+01   4.034986E+01   5.138931E+01   4.426690E+01   4.330075E+01   9.885304E+01   2.764112E+01   4.534018E+01   4.181098E+01   8.726460E+01   1.375230E+02   1.054404E+02   1.054404E+02   3.120853E+02   3.373064E+02   3.373064E+02   1.601410E+02   7.780981E+01   7.780981E+01   3.099304E+01   3.099304E+01   3.099304E+01   2.938804E+02   2.938804E+02   2.938804E+02   2.024572E+02   2.024572E+02   2.024572E+02   2.024572E+02   2.024572E+02   1.256359E+02   1.256359E+02   1.256359E+02   1.256359E+02   1.256359E+02   9.805633E+01   9.805633E+01   9.805633E+01   9.805633E+01   9.805633E+01   9.805633E+01   9.805633E+01   5.094325E+01   5.094325E+01   5.094325E+01   5.094325E+01   5.094325E+01   5.094325E+01   5.094325E+01   5.094325E+01   5.094325E+01   5.094325E+01   1.582800E+01   1.582800E+01   1.582800E+01   1.582800E+01   1.582800E+01   1.582800E+01   1.582800E+01   1.582800E+01   1.582800E+01   6.551496E+00   6.551496E+00   6.551496E+00   6.551496E+00   6.551496E+00   6.551496E+00   6.551496E+00   9.506812E+00   9.506812E+00   9.506812E+00   9.506812E+00   9.506812E+00   5.415764E+01   5.415764E+01   5.415764E+01   5.415764E+01   1.341602E+02   1.341602E+02   1.341602E+02   2.728642E+02   2.728642E+02   2.890805E+02   2.890805E+02   2.577995E+02   2.577995E+02   4.414597E+01   2.308819E+01   2.296915E+01   2.296915E+01   1.106433E+01   2.901436E+01   9.022512E+01   4.118558E+01   1.491381E+01   8.498220E+00   8.904300E+00   4.619532E+01   1.446632E+02   5.248726E+01   7.521035E+01   1.487539E+02   6.538619E+01   3.334831E+01   1.248623E+01   2.313334E+01   4.616136E+01   2.846703E+01   6.360189E+01   7.110407E+01   1.012408E+02   1.305829E+02   6.691130E+01   5.945491E+01   7.229095E+01   1.673504E+02   1.538839E+02   6.064648E+01   7.632110E+01   1.346653E+02   1.477016E+02   1.007077E+02   1.473163E+02   4.868513E+01   2.580515E+02   2.635755E+02   4.443310E+02   1.146566E+02   8.529842E+01
   3.615034E+02   4.080051E+02   7.167479E+01   3.366093E+01   3.709353E+01   2.617682E+01   4.426588E+01   5.163518E+01   1.400414E+02   2.872687E+02   4.842556E+02   1.886832E+02   3.277857E+02   1.660829E+02   7.817522E+01   1.389435E+02   1.326030E+02   1.768029E+02   4.025691E+02   3.263730E+02   4.108426E+02   3.750953E+02   6.314137E+02   3.358162E+02   3.286304E+02   1.812048E+02   7.299717E+01   6.346249E+01   7.797551E+01   8.135332E+01   6.597498E+01   5.922622E+01   1.504923E+02   1.411987E+02   3.137655E+02   8.878450E+01   7.649544E+01   1.704118E+02   6.916309E+01   1.169206E+02   3.638983E+01   4.780643E+01   5.901964E+01   1.381304E+02   1.020412E+02   1.109027E+02   8.903374E+01   5.037459E+01   1.197173E+02   1.948859E+02   1.366307E+02   4.573534E+01   6.653291E+01   3.820345E+01   1.367553E+01   2.945202E+01   3.119543E+01   3.344193E+01   2.171608E+01   1.793001E+01   1.624107E+01   2.274994E+01   1.147371E+01   5.299539E+01   9.145052E+01   1.502343E+02   2.480428E+02   2.853291E+02   1.722918E+02   7.959586E+01   1.222031E+02   1.597110E+02   1.221627E+02   1.185207E+02   5.022347E+01   9.773732E+01   5.886224E+01   1.799485E+01   5.462146E+01   4.872991E+01   1.967458E+01   5.008205E+01   5.209845E+01   5.542809E+01   5.322070E+01   8.630070E+01   6.520553E+01   2.458377E+02   1.679556E+02   1.796031E+02   1.796031E+02   2.000828E+02   5.714473E+01   5.714473E+01   7.172454E+01   1.075201E+02   1.075201E+02   5.288573E+01   5.288573E+01   5.288573E+01   1.098919E+02   1.098919E+02   1.098919E+02   1.416315E+02   1.416315E+02   1.416315E+02   1.416315E+02   1.416315E+02   4.528550E+01   4.528550E+01   4.528550E+01   4.528550E+01   4.528550E+01   1.169362E+02   1.169362E+02   1.169362E+02   1.169362E+02   1.169362E+02   1.169362E+02   1.169362E+02   2.804657E+01   2.804657E+01   2.804657E+01   2.804657E+01   2.804657E+01   2.804657E+01   2.804657E+01   2.804657E+01   2.804657E+01   2.804657E+01   6.256909E+01   6.256909E+01   6.256909E+01   6.256909E+01   6.256909E+01   6.256909E+01   6.256909E+01   6.256909E+01   6.256909E+01   3.151607E+01   3.151607E+01   3.151607E+01   3.151607E+01   3.151607E+01   3.151607E+01   3.151607E+01   1.238727E+01   1.238727E+01   1.238727E+01   1.238727E+01   1.238727E+01   3.786522E+01   3.786522E+01   3.786522E+01   3.786522E+01   1.236903E+02   1.236903E+02   1.236903E+02   2.505754E+02   2.505754E+02   3.287647E+02   3.287647E+02   3.351336E+02   3.351336E+02   6.340002E+01   4.519324E+01   3.149213E+01   3.149213E+01   3.132246E+01   2.475209E+01   1.055778E+02   4.078915E+01   2.470351E+01   1.397974E+01   2.119655E+01   2.926164E+01   9.793010E+01   4.313840E+01   1.361093E+02   2.956327E+02   1.043531E+02   2.948055E+01   2.620819E+01   2.701989E+01   5.330235E+01   5.459243E+01   3.230120E+01   5.693477E+01   1.140918E+02   9.326381E+01   6.227819E+01   7.901901E+01   1.602904E+02   2.153987E+02   2.406339E+02   1.036508E+02   6.692799E+01   6.155035E+01   6.442075E+01   4.390918E+01   6.298967E+01   3.969426E+01   1.776333E+02   2.474020E+02   1.217766E+02   1.005523E+02   1.137656E+02
   2.526444E+02   4.379606E+02   1.109860E+02   2.750267E+01   4.064050E+01   2.900448E+01   2.802339E+01   3.495494E+01   1.580724E+02   5.185285E+02   6.648489E+02   1.782465E+02   2.295201E+02   6.667737E+01   7.752013E+01   1.728942E+02   1.103652E+02   1.887974E+02   5.217910E+02   2.182032E+02   1.002357E+02   1.842248E+02   1.675948E+02   2.352150E+02   3.301964E+02   1.225010E+02   5.732484E+01   4.211296E+01   5.205346E+01   8.212223E+01   7.267075E+01   5.486584E+01   1.073507E+02   9.087762E+01   1.616021E+02   9.377608E+01   7.476250E+01   1.210925E+02   8.115485E+01   7.950032E+01   2.936072E+01   1.818216E+01   4.568405E+01   1.218653E+02   5.995576E+01   7.127290E+01   1.248970E+02   7.075060E+01   1.487906E+02   1.311798E+02   1.086932E+02   4.073988E+01   2.427565E+01   2.239930E+01   1.409177E+01   3.363032E+01   3.607380E+01   3.245883E+01   2.037919E+01   2.265745E+01   5.830523E+00   3.699325E+01   1.148414E+01   5.863696E+01   3.838474E+01   9.129796E+01   2.462191E+02   2.008316E+02   2.131760E+02   9.589906E+01   7.730405E+01   1.314995E+02   1.436517E+02   8.719059E+01   2.853260E+01   2.924890E+01   4.929659E+01   2.418837E+01   4.518651E+01   4.067727E+01   1.130784E+01   2.152973E+01   6.049360E+01   3.702007E+01   4.890004E+01   6.004086E+01   7.468771E+01   1.082505E+02   1.855486E+02   1.742318E+02   1.742318E+02   1.444605E+02   2.910077E+01   2.910077E+01   4.716522E+01   1.262560E+02   1.262560E+02   6.379905E+01   6.379905E+01   6.379905E+01   7.888636E+01   7.888636E+01   7.888636E+01   1.646774E+02   1.646774E+02   1.646774E+02   1.646774E+02   1.646774E+02   8.969817E+01   8.969817E+01   8.969817E+01   8.969817E+01   8.969817E+01   8.374106E+01   8.374106E+01   8.374106E+01   8.374106E+01   8.374106E+01   8.374106E+01   8.374106E+01   8.361530E+01   8.361530E+01   8.361530E+01   8.361530E+01   8.361530E+01   8.361530E+01   8.361530E+01   8.361530E+01   8.361530E+01   8.361530E+01   4.859678E+01   4.859678E+01   4.859678E+01   4.859678E+01   4.859678E+01   4.859678E+01   4.859678E+01   4.859678E+01   4.859678E+01   1.859840E+01   1.859840E+01   1.859840E+01   1.859840E+01   1.859840E+01   1.859840E+01   1.859840E+01   1.313647E+01   1.313647E+01   1.313647E+01   1.313647E+01   1.313647E+01   3.012033E+01   3.012033E+01   3.012033E+01   3.012033E+01   1.381117E+02   1.381117E+02   1.381117E+02   1.206640E+02   1.206640E+02   1.273014E+02   1.273014E+02   1.469742E+02   1.469742E+02   4.588803E+01   3.777076E+01   3.391845E+01   3.391845E+01   2.567953E+01   3.424277E+01   1.509302E+02   8.195001E+01   3.289347E+01   4.556696E+01   5.487806E+01   5.419567E+01   1.333234E+02   8.352951E+01   1.591876E+02   3.589024E+02   1.749063E+02   3.865130E+01   9.302133E+01   8.862553E+01   9.257059E+01   7.473065E+01   1.086252E+02   6.731584E+01   1.568062E+02   1.411581E+02   5.990377E+01   8.730456E+01   7.124625E+01   3.908386E+02   2.220335E+02   7.055286E+01   9.027239E+01   3.925367E+01   1.748299E+01   2.521945E+01   5.509116E+01   7.971074E+01   2.597868E+02   2.681340E+02   1.223198E+02   1.091073E+02   9.805786E+01
   1.426402E+02   3.989724E+02   6.730106E+01   1.986807E+01   2.719990E+01   2.926475E+01   3.941975E+01   9.249125E+01   4.420620E+02   4.341113E+02   5.340688E+02   1.332122E+02   8.192977E+01   3.775742E+01   2.641959E+01   7.376238E+01   7.082774E+01   1.538125E+02   3.139946E+02   3.147896E+02   1.576375E+02   1.967031E+02   9.476658E+01   9.641409E+01   1.482608E+02   9.856415E+01   3.913227E+01   3.434051E+01   5.049357E+01   6.099678E+01   9.795875E+01   5.832357E+01   7.880352E+01   1.204895E+02   1.578842E+02   9.023348E+01   6.445625E+01   1.818616E+02   3.420123E+01   4.453087E+01   1.964142E+01   1.833611E+01   3.774252E+01   4.265859E+01   5.594040E+01   5.909761E+01   4.015589E+01   7.158517E+01   9.808144E+01   4.509422E+01   1.238580E+02   4.316868E+01   4.773207E+01   1.375747E+01   1.511391E+01   4.529852E+01   5.529386E+01   7.467941E+01   3.674345E+01   1.570129E+01   2.504178E+01   2.889449E+01   2.752281E+01   5.287462E+01   3.741129E+01   8.198684E+01   1.344400E+02   1.875695E+02   9.385456E+01   1.332860E+02   1.639788E+02   2.232812E+02   1.353388E+02   8.061392E+01   3.026754E+01   2.093715E+01   5.269106E+01   3.532595E+01   2.607319E+01   2.616832E+01   1.202876E+01   1.515788E+01   4.657275E+01   6.548032E+01   9.425623E+01   4.126218E+01   6.079965E+01   1.945337E+02   1.406746E+02   1.526200E+02   1.526200E+02   1.499942E+02   9.109295E+01   9.109295E+01   9.732346E+01   3.303918E+01   3.303918E+01   7.098553E+01   7.098553E+01   7.098553E+01   1.100192E+02   1.100192E+02   1.100192E+02   5.828910E+01   5.828910E+01   5.828910E+01   5.828910E+01   5.828910E+01   6.634953E+01   6.634953E+01   6.634953E+01   6.634953E+01   6.634953E+01   7.472943E+01   7.472943E+01   7.472943E+01   7.472943E+01   7.472943E+01   7.472943E+01   7.472943E+01   9.000778E+01   9.000778E+01   9.000778E+01   9.000778E+01   9.000778E+01   9.000778E+01   9.000778E+01   9.000778E+01   9.000778E+01   9.000778E+01   1.043133E+02   1.043133E+02   1.043133E+02   1.043133E+02   1.043133E+02   1.043133E+02   1.043133E+02   1.043133E+02   1.043133E+02   3.673008E+01   3.673008E+01   3.673008E+01   3.673008E+01   3.673008E+01   3.673008E+01   3.673008E+01   1.528288E+01   1.528288E+01   1.528288E+01   1.528288E+01   1.528288E+01   1.569782E+01   1.569782E+01   1.569782E+01   1.569782E+01   6.379894E+01   6.379894E+01   6.379894E+01   1.477854E+02   1.477854E+02   1.153056E+02   1.153056E+02   1.486407E+02   1.486407E+02   8.789203E+01   6.129485E+01   7.675644E+01   7.675644E+01   3.216754E+01   6.475347E+01   2.391994E+02   8.354220E+01   2.967155E+01   1.910975E+01   7.793713E+01   4.827929E+01   1.144850E+02   6.371558E+01   1.377359E+02   7.986573E+02   5.631117E+02   1.033865E+02   8.527504E+01   9.957195E+01   1.433599E+02   1.565110E+02   8.202492E+01   1.074002E+02   2.002331E+02   1.816864E+02   7.122971E+01   2.888465E+01   2.490788E+02   4.387869E+02   1.433300E+02   7.276666E+01   3.342007E+01   3.000051E+01   1.111303E+01   1.205521E+01   5.388620E+01   5.254222E+01   7.372514E+01   1.007260E+02   8.314885E+01   5.278531E+01   2.912749E+01
   5.922535E+01   2.360260E+02   6.045939E+01   3.392692E+01   1.601623E+01   4.505748E+01   5.367133E+01   8.559460E+01   2.563696E+02   1.664321E+02   2.056314E+02   1.320336E+02   7.720595E+01   2.692375E+01   2.864048E+01   3.083469E+01   6.944672E+01   1.541853E+02   4.382097E+02   1.550073E+02   1.173374E+02   1.121308E+02   8.376344E+01   5.980056E+01   1.219155E+02   2.193158E+01   1.880622E+01   2.330622E+01   4.471393E+01   9.972304E+01   1.308926E+02   6.052292E+01   3.500696E+01   9.443526E+01   1.986691E+02   9.897233E+01   5.505256E+01   7.730064E+01   3.096134E+01   3.538261E+01   1.337494E+01   1.812753E+01   4.878325E+01   2.499802E+01   4.997714E+01   4.235006E+01   3.555933E+01   1.255559E+02   9.424181E+01   6.396856E+01   1.106539E+02   5.900457E+01   4.089954E+01   2.199980E+01   4.457675E+01   4.326959E+01   7.061340E+01   8.126058E+01   4.741051E+01   2.635521E+01   6.836173E+01   4.570133E+01   5.969419E+01   1.810042E+01   2.366000E+01   8.404841E+01   6.751881E+01   1.431369E+02   4.734797E+01   2.737280E+02   1.779633E+02   1.516864E+02   1.381516E+02   5.408078E+01   1.038972E+02   2.876845E+01   2.823042E+01   2.212576E+01   2.047828E+01   1.454291E+01   1.750306E+01   3.194666E+01   6.554342E+01   9.015993E+01   1.002718E+02   3.100504E+01   9.365916E+01   2.397694E+02   1.296208E+02   1.298234E+02   1.298234E+02   1.950812E+02   1.212715E+02   1.212715E+02   9.489674E+01   3.686885E+01   3.686885E+01   6.756541E+01   6.756541E+01   6.756541E+01   5.163651E+01   5.163651E+01   5.163651E+01   4.782055E+01   4.782055E+01   4.782055E+01   4.782055E+01   4.782055E+01   2.483385E+01   2.483385E+01   2.483385E+01   2.483385E+01   2.483385E+01   4.200779E+01   4.200779E+01   4.200779E+01   4.200779E+01   4.200779E+01   4.200779E+01   4.200779E+01   4.093508E+01   4.093508E+01   4.093508E+01   4.093508E+01   4.093508E+01   4.093508E+01   4.093508E+01   4.093508E+01   4.093508E+01   4.093508E+01   1.872302E+02   1.872302E+02   1.872302E+02   1.872302E+02   1.872302E+02   1.872302E+02   1.872302E+02   1.872302E+02   1.872302E+02   3.567799E+01   3.567799E+01   3.567799E+01   3.567799E+01   3.567799E+01   3.567799E+01   3.567799E+01   1.570200E+01   1.570200E+01   1.570200E+01   1.570200E+01   1.570200E+01   3.072944E+01   3.072944E+01   3.072944E+01   3.072944E+01   8.388948E+01   8.388948E+01   8.388948E+01   3.380760E+02   3.380760E+02   1.248217E+02   1.248217E+02   1.352753E+02   1.352753E+02   1.166986E+02   8.004617E+01   1.852637E+02   1.852637E+02   5.009767E+01   6.285973E+01   3.238676E+02   1.671507E+02   8.656554E+01   5.240290E+01   7.212307E+01   6.375171E+01   5.153340E+01   4.761657E+01   1.222069E+02   6.761527E+02   4.646678E+02   3.638996E+02   1.292577E+02   8.345539E+01   1.784307E+02   3.881937E+02   1.978943E+02   1.308866E+02   1.874557E+02   2.048933E+02   1.117557E+02   5.493882E+01   1.633649E+02   2.094001E+02   8.127106E+01   2.486618E+01   3.303241E+01   1.725764E+01   2.686094E+01   3.113852E+01   5.084488E+01   4.158485E+01   1.421172E+02   1.841317E+02   3.968342E+01   1.807468E+01   4.066526E+01