# LPF package for  MODFLOW-2005, generated by Flopy.
        53    -1E+30         0  
         1
         0
   0.000000E+00
         0
         0
INTERNAL               1 (207E15.6) -1 #hk layer 1                    
   7.672379E+00   3.939441E+01   7.771539E+01   3.884669E+01   9.093867E+01   3.261877E+01   8.486932E+01   6.137747E+01   4.345636E+01   1.067281E+01   8.175281E+00   1.607713E+01   2.040361E+01   2.336271E+01   3.545144E+01   1.704818E+02   1.037409E+02   3.769034E+01   6.125492E+01   4.790683E+01   3.035678E+01   1.258344E+02   4.367602E+01   2.478534E+01   4.444038E+01   4.797588E+01   4.276151E+01   3.409060E+01   5.286419E+01   7.191605E+01   7.623256E+01   2.575394E+01   2.889557E+01   5.171690E+00   1.484158E+00   1.262187E+01   1.333668E+01   9.804627E+00   1.934380E+01   2.538880E+01   6.761679E+00   3.639515E+01   2.710488E+01   4.393494E+01   1.728711E+02   5.130257E+01   1.721820E+01   1.909318E+01   2.900082E+01   9.489513E+01   8.353227E+01   3.855129E+02   1.986328E+02   4.233538E+01   3.576657E+01   4.647872E+01   2.215609E+01   1.165448E+01   3.780717E+01   6.983562E+01   4.944672E+01   6.261038E+01   3.723858E+01   2.382160E+01   1.872512E+01   6.032243E+01   7.640926E+01   5.354420E+01   3.187982E+01   5.609950E+01   4.536963E+01   2.544460E+01   1.505112E+01   1.592419E+01   2.194221E+01   1.064799E+01   1.167336E+01   4.678849E+01   2.821270E+01   9.655006E+01   1.692903E+02   4.581112E+01   5.384796E+01   6.741311E+01   6.952536E+01   1.432594E+01   1.165104E+01   9.715083E+01   5.070724E+01   1.461281E+02   1.461281E+02   5.947491E+01   8.460478E+01   8.460478E+01   3.329205E+01   1.287043E+01   1.287043E+01   2.440581E+01   2.440581E+01   2.440581E+01   2.267115E+01   2.267115E+01   2.267115E+01   2.987504E+01   2.987504E+01   2.987504E+01   2.987504E+01   2.987504E+01   3.543903E+01   3.543903E+01   3.543903E+01   3.543903E+01   3.543903E+01   1.294752E+01   1.294752E+01   1.294752E+01   1.294752E+01   1.294752E+01   1.294752E+01   1.294752E+01   1.341013E+01   1.341013E+01   1.341013E+01   1.341013E+01   1.341013E+01   1.341013E+01   1.341013E+01   1.341013E+01   1.341013E+01   1.341013E+01   2.338270E+01   2.338270E+01   2.338270E+01   2.338270E+01   2.338270E+01   2.338270E+01   2.338270E+01   2.338270E+01   2.338270E+01   2.649636E+01   2.649636E+01   2.649636E+01   2.649636E+01   2.649636E+01   2.649636E+01   2.649636E+01   2.508849E+01   2.508849E+01   2.508849E+01   2.508849E+01   2.508849E+01   6.591885E+01   6.591885E+01   6.591885E+01   6.591885E+01   6.843285E+01   6.843285E+01   6.843285E+01   8.572468E+01   8.572468E+01   1.656877E+02   1.656877E+02   4.814237E+02   4.814237E+02   3.902804E+01   8.827165E+01   3.426215E+01   3.426215E+01   1.598347E+01   1.755134E+01   1.809206E+01   2.153411E+01   7.861916E+01   1.697815E+02   1.327699E+02   8.026595E+01   2.273384E+01   1.173770E+01   1.443849E+01   1.550178E+01   1.347589E+01   2.221729E+01   1.036506E+02   6.145716E+01   4.866126E+01   6.744726E+01   1.278471E+02   1.537223E+02   2.091442E+02   1.324921E+02   8.361205E+01   1.118850E+02   7.042564E+01   1.536775E+02   1.527925E+02   6.278526E+01   3.441985E+01   7.893016E+01   3.555602E+01   3.612814E+01   2.982221E+01   3.973681E+01   5.311794E+01   3.299603E+01   4.731046E+01   9.000903E+01   6.980075E+01
   1.250547E+01   2.372213E+01   8.293838E+01   6.763563E+01   6.396611E+01   2.759434E+01   8.821342E+01   1.002764E+02   8.616555E+01   2.491135E+01   7.616666E+00   7.870994E+00   9.698526E+00   1.213696E+01   4.401965E+01   1.632504E+02   1.224633E+02   6.623096E+01   1.046867E+02   1.014562E+02   2.259629E+02   9.968258E+01   6.125951E+01   5.042495E+01   5.234405E+01   5.774149E+01   4.142653E+01   4.275692E+01   5.520687E+01   5.217086E+01   7.694825E+01   3.070806E+01   3.102074E+01   8.500546E+00   1.170605E+01   3.284851E+01   1.930672E+01   1.639114E+01   2.252746E+01   1.786296E+01   6.978956E+00   2.497470E+01   5.584763E+01   4.696826E+01   4.507564E+01   3.916290E+01   1.086927E+01   2.870501E+01   2.544982E+01   6.200896E+01   7.717897E+01   5.126686E+02   1.189763E+02   4.132013E+01   4.305113E+01   4.464931E+01   7.473135E+01   3.807285E+01   7.078465E+01   3.345350E+01   2.550089E+01   3.921630E+01   6.610662E+01   2.999622E+01   2.544363E+01   4.547586E+01   2.286389E+01   6.814729E+01   6.607659E+01   5.218987E+01   3.770616E+01   1.915424E+01   7.964086E+00   8.177166E+00   9.635131E+00   5.796451E+00   8.925520E+00   1.950225E+01   5.381519E+01   9.998283E+01   1.210423E+02   2.367975E+01   3.788309E+01   1.021392E+02   5.628405E+01   1.429869E+01   3.912012E+00   5.305224E+01   2.700251E+01   5.690686E+01   5.690686E+01   6.034426E+01   4.809058E+01   4.809058E+01   2.478815E+01   7.725968E+00   7.725968E+00   1.116589E+01   1.116589E+01   1.116589E+01   6.413290E+01   6.413290E+01   6.413290E+01   2.454331E+01   2.454331E+01   2.454331E+01   2.454331E+01   2.454331E+01   2.142453E+01   2.142453E+01   2.142453E+01   2.142453E+01   2.142453E+01   1.580887E+01   1.580887E+01   1.580887E+01   1.580887E+01   1.580887E+01   1.580887E+01   1.580887E+01   3.033218E+01   3.033218E+01   3.033218E+01   3.033218E+01   3.033218E+01   3.033218E+01   3.033218E+01   3.033218E+01   3.033218E+01   3.033218E+01   2.149835E+01   2.149835E+01   2.149835E+01   2.149835E+01   2.149835E+01   2.149835E+01   2.149835E+01   2.149835E+01   2.149835E+01   6.145184E+01   6.145184E+01   6.145184E+01   6.145184E+01   6.145184E+01   6.145184E+01   6.145184E+01   4.695004E+01   4.695004E+01   4.695004E+01   4.695004E+01   4.695004E+01   4.499165E+01   4.499165E+01   4.499165E+01   4.499165E+01   1.021864E+02   1.021864E+02   1.021864E+02   1.210077E+02   1.210077E+02   1.224227E+02   1.224227E+02   2.766177E+02   2.766177E+02   5.072106E+01   1.044393E+02   6.106197E+01   6.106197E+01   2.271175E+01   1.777730E+01   1.171044E+01   2.890735E+01   9.032432E+01   2.272440E+02   1.545188E+02   9.437024E+01   4.210762E+01   7.000352E+00   1.016363E+01   1.735633E+01   7.726260E+00   2.009624E+01   4.315562E+01   8.229725E+01   3.571873E+01   9.136893E+01   1.159873E+02   7.406989E+01   1.492915E+02   2.349616E+02   1.898803E+02   2.577332E+02   1.874144E+02   2.081649E+02   1.481002E+02   3.263722E+01   9.678729E+01   6.519727E+01   2.685642E+01   4.240918E+01   7.700084E+01   4.943077E+01   5.020275E+01   4.441273E+01   5.870757E+01   4.107951E+01   1.069826E+02
   5.643506E+00   1.734655E+01   4.842868E+01   6.678854E+01   4.212514E+01   6.750600E+01   1.041145E+02   1.061641E+02   1.007425E+02   3.148376E+01   6.628815E+00   6.351259E+00   6.839547E+00   9.353395E+00   5.205016E+01   1.910864E+02   3.360707E+01   5.058086E+01   7.446517E+01   8.244833E+01   1.966795E+02   1.590495E+02   8.667255E+01   7.550687E+01   4.513308E+01   5.217932E+01   6.075296E+01   4.071203E+01   1.044769E+02   7.839204E+01   1.167569E+02   2.207078E+01   2.555425E+01   1.435785E+01   3.075224E+01   3.220776E+01   3.509457E+01   3.595662E+01   3.066692E+01   9.024821E+00   1.548446E+01   2.276505E+01   1.875147E+01   3.386968E+01   8.276614E+01   2.494866E+01   2.247243E+01   2.722858E+01   2.778098E+01   2.962738E+01   1.383038E+02   3.738340E+02   7.134566E+01   3.656573E+01   5.687352E+01   4.388582E+01   5.246152E+01   4.323303E+01   4.186771E+01   3.458091E+01   3.041804E+01   3.635653E+01   3.646816E+01   1.838923E+01   2.744309E+01   6.629897E+01   2.163602E+01   3.834124E+01   9.133735E+01   4.521033E+01   4.113934E+01   1.386881E+01   1.461119E+01   2.868179E+01   2.028656E+01   7.183066E+00   6.967300E+00   1.249677E+01   3.065968E+01   1.234262E+02   6.488186E+01   4.516831E+01   6.816613E+01   8.003794E+01   3.202051E+01   1.801939E+01   4.229635E+00   2.323024E+01   3.898283E+01   4.509228E+01   4.509228E+01   6.902943E+01   2.743202E+01   2.743202E+01   6.629592E+01   1.616712E+01   1.616712E+01   1.415270E+01   1.415270E+01   1.415270E+01   2.590724E+01   2.590724E+01   2.590724E+01   2.211396E+01   2.211396E+01   2.211396E+01   2.211396E+01   2.211396E+01   1.411865E+01   1.411865E+01   1.411865E+01   1.411865E+01   1.411865E+01   2.003140E+01   2.003140E+01   2.003140E+01   2.003140E+01   2.003140E+01   2.003140E+01   2.003140E+01   2.933180E+01   2.933180E+01   2.933180E+01   2.933180E+01   2.933180E+01   2.933180E+01   2.933180E+01   2.933180E+01   2.933180E+01   2.933180E+01   3.567241E+01   3.567241E+01   3.567241E+01   3.567241E+01   3.567241E+01   3.567241E+01   3.567241E+01   3.567241E+01   3.567241E+01   6.585830E+01   6.585830E+01   6.585830E+01   6.585830E+01   6.585830E+01   6.585830E+01   6.585830E+01   4.905659E+01   4.905659E+01   4.905659E+01   4.905659E+01   4.905659E+01   1.118114E+02   1.118114E+02   1.118114E+02   1.118114E+02   1.406205E+02   1.406205E+02   1.406205E+02   7.861928E+01   7.861928E+01   1.788930E+02   1.788930E+02   1.379393E+02   1.379393E+02   5.812616E+01   1.009919E+02   1.355784E+02   1.355784E+02   4.698282E+01   2.472422E+01   8.951993E+00   2.620165E+01   2.443702E+02   1.940611E+02   1.547083E+02   8.232482E+01   3.829140E+01   6.132137E+00   1.629858E+01   2.544969E+01   7.251549E+00   2.199029E+01   6.637702E+01   1.550178E+02   4.186528E+01   5.448510E+01   1.067204E+02   8.629452E+01   2.044264E+02   2.078476E+02   2.559202E+02   2.181850E+02   1.747514E+02   2.502840E+02   1.204590E+02   4.170381E+01   1.023139E+02   4.658785E+01   2.817539E+01   6.828351E+01   5.036510E+01   3.797046E+01   8.773347E+01   2.992429E+01   5.609863E+01   4.546992E+01   7.595866E+01
   6.554723E+00   2.136488E+01   1.901853E+01   4.216089E+01   4.291513E+01   4.773470E+01   1.072660E+02   1.247130E+02   1.945140E+02   3.545992E+01   1.003577E+01   9.990937E+00   1.507555E+01   1.139052E+01   4.808367E+01   1.365866E+02   5.420114E+01   9.631349E+01   4.804662E+01   5.135452E+01   1.869866E+02   8.863471E+01   1.310883E+02   8.252757E+01   5.499775E+01   3.301085E+01   4.622374E+01   4.392807E+01   6.905582E+01   5.506954E+01   5.857167E+01   3.666413E+01   1.427451E+01   3.498078E+01   5.834261E+01   5.889268E+01   3.433905E+01   2.161388E+01   3.180227E+01   1.185534E+01   7.353334E+00   8.323015E+00   1.626717E+01   4.725439E+01   2.464676E+01   3.005415E+01   2.206584E+01   2.638906E+01   2.495017E+01   2.760093E+01   9.245650E+01   3.621084E+02   1.771532E+02   8.988184E+01   6.542393E+01   2.940666E+01   4.550289E+01   5.544172E+01   8.439856E+01   1.923890E+01   1.578830E+01   2.018153E+01   4.761592E+01   2.482284E+01   4.593843E+01   4.542739E+01   3.190545E+01   3.671873E+01   5.264237E+01   3.447747E+01   2.710063E+01   1.436819E+01   2.172791E+01   3.882181E+01   2.196097E+01   3.465724E+00   3.399240E+00   7.243419E+00   4.753838E+01   6.900089E+01   8.081869E+01   2.997741E+01   7.462811E+01   4.334552E+01   3.348541E+01   1.737447E+01   6.476965E+00   4.150727E+01   7.822712E+01   8.058275E+01   8.058275E+01   2.534767E+01   3.161897E+01   3.161897E+01   2.044536E+02   5.032866E+01   5.032866E+01   1.451212E+01   1.451212E+01   1.451212E+01   1.293807E+01   1.293807E+01   1.293807E+01   2.451975E+01   2.451975E+01   2.451975E+01   2.451975E+01   2.451975E+01   1.470748E+01   1.470748E+01   1.470748E+01   1.470748E+01   1.470748E+01   1.253597E+01   1.253597E+01   1.253597E+01   1.253597E+01   1.253597E+01   1.253597E+01   1.253597E+01   3.177978E+01   3.177978E+01   3.177978E+01   3.177978E+01   3.177978E+01   3.177978E+01   3.177978E+01   3.177978E+01   3.177978E+01   3.177978E+01   6.555202E+01   6.555202E+01   6.555202E+01   6.555202E+01   6.555202E+01   6.555202E+01   6.555202E+01   6.555202E+01   6.555202E+01   7.500824E+01   7.500824E+01   7.500824E+01   7.500824E+01   7.500824E+01   7.500824E+01   7.500824E+01   1.901847E+01   1.901847E+01   1.901847E+01   1.901847E+01   1.901847E+01   8.889400E+01   8.889400E+01   8.889400E+01   8.889400E+01   8.674164E+01   8.674164E+01   8.674164E+01   5.972023E+01   5.972023E+01   1.513518E+02   1.513518E+02   5.011947E+01   5.011947E+01   7.543533E+01   8.397790E+01   1.229796E+02   1.229796E+02   5.128080E+01   3.635549E+01   1.499060E+01   4.593090E+01   2.002318E+02   2.253569E+02   1.077280E+02   1.153945E+02   4.739660E+01   1.361825E+01   1.604852E+01   4.782199E+01   3.059169E+01   1.294344E+01   3.642719E+01   6.003041E+01   2.128098E+01   2.711865E+01   7.883466E+01   6.842611E+01   2.402296E+02   1.832881E+02   3.978157E+02   2.588324E+02   9.375791E+01   1.032406E+02   8.244212E+01   5.515528E+01   1.229557E+02   1.905679E+01   1.644825E+01   5.976174E+01   6.056803E+01   5.243794E+01   9.136818E+01   4.535362E+01   3.141092E+01   1.115496E+02   5.281542E+01
   9.500404E+00   3.006155E+01   3.523376E+01   5.589576E+01   4.957494E+01   7.796941E+01   8.477367E+01   1.829865E+02   1.640306E+02   5.463308E+01   1.531820E+01   2.075281E+01   3.358954E+01   1.673615E+01   6.327772E+01   4.433879E+01   5.254330E+01   5.241685E+01   4.993945E+01   4.574917E+01   1.252081E+02   1.400590E+02   1.262154E+02   1.347248E+02   3.711108E+01   3.766592E+01   4.414641E+01   7.427320E+01   7.972923E+01   7.485541E+01   9.040717E+01   7.314787E+01   2.299139E+01   5.670253E+01   7.568923E+01   8.206777E+01   7.384619E+01   4.130483E+01   2.119611E+01   2.890573E+01   1.184885E+01   4.372910E+01   2.583223E+01   6.854869E+01   9.311993E+01   4.215791E+01   4.243871E+01   4.112018E+01   4.422530E+01   2.524675E+01   7.044481E+01   1.691008E+02   5.182837E+01   7.629509E+01   8.145383E+01   1.824846E+01   3.369699E+01   5.859496E+01   6.967634E+01   1.442607E+01   1.517560E+01   1.023383E+01   5.437133E+01   3.064445E+01   2.855754E+01   3.002436E+01   2.926152E+01   2.528304E+01   3.346343E+01   1.742558E+01   2.906246E+01   2.402397E+01   4.149054E+01   4.138424E+01   5.515637E+00   4.133417E+00   1.063199E+01   1.611606E+01   1.211424E+02   1.031587E+02   5.841979E+01   4.237963E+01   1.187245E+02   6.889645E+01   1.026169E+02   2.924245E+01   1.356325E+01   4.391101E+01   6.031778E+01   7.775652E+01   7.775652E+01   1.617374E+01   3.544892E+01   3.544892E+01   8.159035E+01   4.413677E+01   4.413677E+01   8.537109E+00   8.537109E+00   8.537109E+00   1.352344E+01   1.352344E+01   1.352344E+01   6.220099E+01   6.220099E+01   6.220099E+01   6.220099E+01   6.220099E+01   2.018468E+01   2.018468E+01   2.018468E+01   2.018468E+01   2.018468E+01   1.525203E+01   1.525203E+01   1.525203E+01   1.525203E+01   1.525203E+01   1.525203E+01   1.525203E+01   4.253879E+01   4.253879E+01   4.253879E+01   4.253879E+01   4.253879E+01   4.253879E+01   4.253879E+01   4.253879E+01   4.253879E+01   4.253879E+01   9.355727E+01   9.355727E+01   9.355727E+01   9.355727E+01   9.355727E+01   9.355727E+01   9.355727E+01   9.355727E+01   9.355727E+01   8.364295E+01   8.364295E+01   8.364295E+01   8.364295E+01   8.364295E+01   8.364295E+01   8.364295E+01   2.738462E+01   2.738462E+01   2.738462E+01   2.738462E+01   2.738462E+01   8.085740E+01   8.085740E+01   8.085740E+01   8.085740E+01   3.402290E+01   3.402290E+01   3.402290E+01   4.304396E+01   4.304396E+01   1.877164E+02   1.877164E+02   2.823475E+01   2.823475E+01   2.867451E+01   8.880706E+01   4.931807E+01   4.931807E+01   5.154946E+01   2.598865E+01   7.901937E+00   2.657155E+01   2.697604E+02   1.768526E+02   1.126972E+02   1.447561E+02   6.731058E+01   1.215723E+01   3.151460E+01   3.373540E+01   1.887102E+01   1.311498E+01   3.308817E+01   5.528000E+01   2.549300E+01   4.030712E+01   5.050219E+01   7.491638E+01   2.067845E+02   2.121615E+02   1.929880E+02   3.785457E+02   7.931619E+01   6.621899E+01   4.724755E+01   4.985508E+01   2.633022E+01   1.478666E+01   1.908355E+01   6.664555E+01   8.247665E+01   6.601987E+01   7.600324E+01   7.762444E+01   6.736053E+01   4.101834E+01   9.140532E+01
   7.977873E+00   2.691837E+01   3.153509E+01   4.228237E+01   6.777326E+01   1.950395E+02   2.138383E+02   1.683795E+02   2.684985E+02   4.712468E+01   3.249794E+01   1.880070E+01   1.765412E+01   1.954302E+01   3.316756E+01   2.106700E+01   3.910715E+01   6.350955E+01   1.247311E+02   6.267684E+01   3.255526E+01   9.833237E+01   7.652937E+01   9.258168E+01   4.447541E+01   5.455978E+01   4.240038E+01   1.239095E+02   8.985367E+01   4.938108E+01   8.519836E+01   2.905080E+01   4.270052E+01   6.245862E+01   1.796776E+02   1.300239E+02   9.803362E+01   4.213352E+01   1.873005E+01   1.357296E+01   1.125739E+01   5.848697E+01   4.065082E+01   7.418753E+01   7.294672E+01   5.903032E+01   3.972795E+01   7.155961E+01   3.497838E+01   2.599833E+01   6.504854E+01   2.907070E+01   9.357187E+00   3.440652E+01   1.083328E+02   4.034703E+01   7.439414E+01   1.305159E+02   5.528207E+01   1.440923E+01   2.158090E+01   2.180639E+01   2.465290E+01   7.029836E+01   4.148060E+01   2.070250E+01   4.120699E+01   4.197791E+01   5.336783E+01   2.465949E+01   4.589502E+01   2.949705E+01   7.861737E+01   3.000867E+01   7.121315E+00   5.738009E+00   1.115096E+01   1.953523E+01   5.678982E+01   5.433468E+01   5.323158E+01   5.023117E+01   3.173684E+01   4.539487E+01   3.572639E+01   2.145002E+01   2.701031E+01   4.161263E+01   4.481693E+01   5.706185E+01   5.706185E+01   1.818316E+01   3.096939E+01   3.096939E+01   5.811617E+01   2.713005E+01   2.713005E+01   1.034204E+01   1.034204E+01   1.034204E+01   1.664884E+01   1.664884E+01   1.664884E+01   6.316780E+01   6.316780E+01   6.316780E+01   6.316780E+01   6.316780E+01   3.166760E+01   3.166760E+01   3.166760E+01   3.166760E+01   3.166760E+01   2.312659E+01   2.312659E+01   2.312659E+01   2.312659E+01   2.312659E+01   2.312659E+01   2.312659E+01   5.729294E+01   5.729294E+01   5.729294E+01   5.729294E+01   5.729294E+01   5.729294E+01   5.729294E+01   5.729294E+01   5.729294E+01   5.729294E+01   7.442242E+01   7.442242E+01   7.442242E+01   7.442242E+01   7.442242E+01   7.442242E+01   7.442242E+01   7.442242E+01   7.442242E+01   6.846699E+01   6.846699E+01   6.846699E+01   6.846699E+01   6.846699E+01   6.846699E+01   6.846699E+01   4.287489E+01   4.287489E+01   4.287489E+01   4.287489E+01   4.287489E+01   5.910072E+01   5.910072E+01   5.910072E+01   5.910072E+01   2.229139E+01   2.229139E+01   2.229139E+01   2.429504E+01   2.429504E+01   6.745175E+01   6.745175E+01   4.924714E+01   4.924714E+01   3.072483E+01   3.083031E+01   4.281916E+01   4.281916E+01   7.906414E+01   3.276546E+01   7.323018E+00   1.781910E+01   1.774533E+02   1.706732E+02   8.355898E+01   1.102395E+02   8.114646E+01   4.832985E+01   3.696192E+01   2.669145E+01   9.808113E+00   2.496086E+01   2.803403E+01   2.511752E+01   2.168857E+01   4.380630E+01   2.853098E+01   1.053968E+02   1.838616E+02   3.395972E+02   7.513794E+01   1.641074E+02   6.897279E+01   4.639823E+01   2.017626E+01   2.687413E+01   2.680761E+01   1.478152E+01   3.400031E+01   2.866963E+01   5.930181E+01   9.126935E+01   1.138070E+02   8.299017E+01   6.018462E+01   6.249800E+01   8.847031E+01
   8.522769E+00   2.894016E+01   4.744255E+01   4.710814E+01   9.054387E+01   1.242589E+02   2.820642E+02   2.296816E+02   8.306784E+01   1.130003E+02   8.648354E+01   2.769104E+01   2.188326E+01   2.236125E+01   2.411847E+01   2.243213E+01   2.602447E+01   8.396405E+01   6.747818E+01   6.100113E+01   4.918905E+01   1.682080E+02   1.126396E+02   9.537364E+01   6.781147E+01   9.803436E+01   6.729405E+01   1.259077E+02   8.384157E+01   5.491692E+01   4.866620E+01   9.429128E+00   2.559797E+01   7.726347E+01   1.065955E+02   7.694493E+01   1.528082E+02   7.065981E+01   2.670620E+01   2.018885E+01   1.482384E+01   2.670113E+01   6.971727E+01   6.862872E+01   1.296369E+02   1.529700E+02   8.280389E+01   7.259110E+01   4.838008E+01   1.375299E+01   6.393630E+01   3.096041E+01   3.228590E+01   3.166443E+01   8.143027E+01   2.827182E+01   1.428406E+02   1.277722E+02   1.886846E+01   1.082894E+01   1.245948E+01   1.044964E+01   3.458727E+01   8.793776E+01   4.101777E+01   3.383630E+01   3.452032E+01   1.764328E+01   6.467200E+01   2.735999E+01   5.862679E+01   8.871597E+01   1.299522E+02   2.939557E+01   6.159081E+00   8.950855E+00   8.600700E+00   2.300173E+01   4.154605E+01   3.107099E+01   2.736257E+01   7.070271E+01   3.829818E+01   5.280066E+01   5.760310E+01   1.810882E+01   6.466786E+01   5.957524E+01   7.067513E+01   3.489094E+01   3.489094E+01   2.801529E+01   7.923108E+01   7.923108E+01   5.160441E+01   3.545796E+01   3.545796E+01   2.394887E+01   2.394887E+01   2.394887E+01   3.057182E+01   3.057182E+01   3.057182E+01   4.558891E+01   4.558891E+01   4.558891E+01   4.558891E+01   4.558891E+01   2.879495E+01   2.879495E+01   2.879495E+01   2.879495E+01   2.879495E+01   5.173647E+01   5.173647E+01   5.173647E+01   5.173647E+01   5.173647E+01   5.173647E+01   5.173647E+01   4.496373E+01   4.496373E+01   4.496373E+01   4.496373E+01   4.496373E+01   4.496373E+01   4.496373E+01   4.496373E+01   4.496373E+01   4.496373E+01   3.970878E+01   3.970878E+01   3.970878E+01   3.970878E+01   3.970878E+01   3.970878E+01   3.970878E+01   3.970878E+01   3.970878E+01   5.050154E+01   5.050154E+01   5.050154E+01   5.050154E+01   5.050154E+01   5.050154E+01   5.050154E+01   3.592881E+01   3.592881E+01   3.592881E+01   3.592881E+01   3.592881E+01   3.083813E+01   3.083813E+01   3.083813E+01   3.083813E+01   3.065452E+01   3.065452E+01   3.065452E+01   9.838598E+00   9.838598E+00   2.160539E+01   2.160539E+01   2.567859E+01   2.567859E+01   1.495725E+01   1.839730E+01   3.082608E+01   3.082608E+01   1.958763E+01   2.995938E+01   6.008862E+00   3.990973E+01   1.014622E+02   1.105084E+02   5.299617E+01   7.508993E+01   6.105811E+01   4.206934E+01   4.191364E+01   1.043296E+01   1.324910E+01   2.286606E+01   2.700026E+01   6.315685E+01   3.276740E+01   2.201702E+01   3.078862E+01   6.626196E+01   6.784877E+01   1.633147E+02   7.133835E+01   1.325582E+02   1.205808E+02   3.567573E+01   4.576811E+01   3.460937E+01   1.922674E+01   6.890440E+00   1.526930E+01   1.377848E+01   3.136367E+01   5.484686E+01   3.578025E+01   2.576379E+01   3.188255E+01   7.632335E+01   4.484279E+01
   2.399887E+01   4.486739E+01   2.960359E+01   2.971824E+01   4.806041E+01   1.699211E+02   2.625161E+02   9.217568E+01   6.755811E+01   6.870075E+01   4.161860E+01   2.112481E+01   1.975544E+01   1.896136E+01   1.147270E+01   1.066901E+01   3.606682E+01   4.856761E+01   3.989978E+01   5.304933E+01   7.947386E+01   8.239690E+01   6.250246E+01   1.005436E+02   7.295957E+01   5.300080E+01   9.608332E+01   4.950161E+01   4.202089E+01   2.464927E+01   1.494790E+01   4.125448E+01   3.861101E+01   2.838066E+01   3.625110E+01   3.595386E+01   6.631666E+01   5.265759E+01   2.792630E+01   4.607776E+01   2.360799E+01   3.563019E+01   9.485690E+01   6.063572E+01   1.099067E+02   1.211893E+02   2.431170E+02   1.057136E+02   7.971255E+01   3.653318E+01   4.932709E+01   4.475168E+01   5.847045E+01   2.329159E+01   2.536015E+01   4.662384E+01   8.512267E+01   9.730582E+01   1.834274E+01   2.331094E+01   2.761008E+01   1.762263E+01   6.742086E+01   7.077046E+01   5.514087E+01   2.876951E+01   4.272190E+01   4.260526E+01   3.455869E+01   2.384593E+01   9.050684E+01   2.330558E+02   1.497707E+02   1.624236E+01   4.625857E+00   1.534345E+01   1.097820E+01   2.571664E+01   2.576789E+01   2.264628E+01   3.410292E+01   3.702374E+01   4.444973E+01   2.509472E+01   7.432980E+01   1.547341E+01   8.294394E+01   5.677463E+01   1.023927E+02   1.610220E+02   1.610220E+02   5.436688E+01   5.402090E+01   5.402090E+01   4.616746E+01   3.774431E+01   3.774431E+01   3.637209E+01   3.637209E+01   3.637209E+01   3.169400E+01   3.169400E+01   3.169400E+01   2.937714E+01   2.937714E+01   2.937714E+01   2.937714E+01   2.937714E+01   4.346183E+01   4.346183E+01   4.346183E+01   4.346183E+01   4.346183E+01   2.741496E+01   2.741496E+01   2.741496E+01   2.741496E+01   2.741496E+01   2.741496E+01   2.741496E+01   2.074033E+01   2.074033E+01   2.074033E+01   2.074033E+01   2.074033E+01   2.074033E+01   2.074033E+01   2.074033E+01   2.074033E+01   2.074033E+01   4.827787E+01   4.827787E+01   4.827787E+01   4.827787E+01   4.827787E+01   4.827787E+01   4.827787E+01   4.827787E+01   4.827787E+01   6.942201E+01   6.942201E+01   6.942201E+01   6.942201E+01   6.942201E+01   6.942201E+01   6.942201E+01   2.021384E+01   2.021384E+01   2.021384E+01   2.021384E+01   2.021384E+01   5.399046E+00   5.399046E+00   5.399046E+00   5.399046E+00   1.279297E+01   1.279297E+01   1.279297E+01   1.459251E+01   1.459251E+01   2.317253E+01   2.317253E+01   1.808282E+01   1.808282E+01   1.046823E+01   1.304800E+01   1.137092E+01   1.137092E+01   1.177093E+01   2.756321E+01   1.156876E+01   2.336108E+01   9.998291E+01   7.121156E+01   4.271798E+01   3.485347E+01   4.474490E+01   1.425989E+02   6.961712E+01   1.901950E+01   2.019840E+01   1.508651E+01   2.536431E+01   6.036633E+01   3.045676E+01   1.814719E+01   8.492003E+00   3.307399E+01   6.770882E+01   6.754281E+01   8.439488E+01   8.670589E+01   6.708002E+01   2.755194E+01   1.861375E+01   2.096412E+01   1.845322E+01   1.372803E+01   1.630943E+01   1.107398E+01   2.997221E+01   5.495315E+01   5.608609E+01   7.202823E+01   3.434453E+01   7.875749E+01   4.765996E+01
   3.665679E+01   3.725620E+01   3.990871E+01   3.531886E+01   6.124744E+01   1.330101E+02   1.272846E+02   1.247693E+02   8.644686E+01   4.039283E+01   4.044304E+01   1.827729E+01   9.816269E+00   1.413966E+01   8.046668E+00   1.739532E+01   2.154222E+01   2.183964E+01   4.273957E+01   2.299465E+01   7.768378E+01   8.512855E+01   1.019059E+02   1.565267E+02   7.930392E+01   1.509178E+02   1.292320E+02   1.617409E+02   6.096573E+01   3.918312E+01   2.908757E+01   3.598840E+01   4.355360E+01   3.322726E+01   3.521910E+01   5.122479E+01   4.835587E+01   4.799926E+01   6.336492E+01   2.760414E+01   1.863995E+01   2.593091E+01   4.562756E+01   5.166273E+01   1.420443E+02   1.329232E+02   2.037840E+02   1.755807E+02   5.557895E+01   5.252572E+01   3.617030E+01   7.069536E+01   1.361504E+02   2.755359E+01   2.591231E+01   4.807584E+01   8.797082E+01   7.595476E+01   5.337176E+01   3.282068E+01   4.472606E+01   2.616405E+01   7.752849E+01   1.832417E+01   4.252697E+01   4.566779E+01   3.036514E+01   5.871461E+01   1.219564E+01   4.164040E+01   7.728750E+01   2.148921E+02   5.217466E+01   1.204668E+01   1.036892E+01   8.567678E+00   9.664414E+00   4.735708E+01   2.773656E+01   2.552986E+01   4.664141E+01   2.696962E+01   6.334796E+01   3.113538E+01   5.793911E+01   2.179231E+01   8.293155E+01   5.746147E+01   1.601418E+02   2.094551E+02   2.094551E+02   2.057915E+02   6.688730E+01   6.688730E+01   3.150804E+01   2.793426E+01   2.793426E+01   2.767942E+01   2.767942E+01   2.767942E+01   4.144897E+01   4.144897E+01   4.144897E+01   3.453029E+01   3.453029E+01   3.453029E+01   3.453029E+01   3.453029E+01   8.956878E+01   8.956878E+01   8.956878E+01   8.956878E+01   8.956878E+01   2.084367E+01   2.084367E+01   2.084367E+01   2.084367E+01   2.084367E+01   2.084367E+01   2.084367E+01   2.623176E+01   2.623176E+01   2.623176E+01   2.623176E+01   2.623176E+01   2.623176E+01   2.623176E+01   2.623176E+01   2.623176E+01   2.623176E+01   3.403363E+01   3.403363E+01   3.403363E+01   3.403363E+01   3.403363E+01   3.403363E+01   3.403363E+01   3.403363E+01   3.403363E+01   7.216891E+01   7.216891E+01   7.216891E+01   7.216891E+01   7.216891E+01   7.216891E+01   7.216891E+01   1.380810E+01   1.380810E+01   1.380810E+01   1.380810E+01   1.380810E+01   2.180144E+00   2.180144E+00   2.180144E+00   2.180144E+00   4.416905E+00   4.416905E+00   4.416905E+00   1.365783E+01   1.365783E+01   2.752636E+01   2.752636E+01   1.977527E+01   1.977527E+01   5.851609E+00   7.050250E+00   2.170106E+01   2.170106E+01   1.539507E+01   1.238010E+01   1.200557E+01   2.047360E+01   2.296009E+01   2.084624E+01   3.181368E+01   2.366339E+01   3.439132E+01   1.621754E+02   1.390298E+02   1.304854E+01   2.400191E+01   1.825615E+01   3.031601E+01   8.490860E+01   7.198589E+01   3.833494E+01   2.269540E+01   3.050349E+01   7.140894E+01   8.706219E+01   1.041903E+02   8.099569E+01   7.787175E+01   3.230700E+01   2.708583E+01   3.344279E+01   1.935872E+01   3.850247E+01   2.048122E+01   3.327690E+01   3.089316E+01   2.529198E+01   2.534164E+01   2.530600E+02   3.689606E+01   4.543047E+01   3.840885E+01