# LPF package for  MODFLOW-2005, generated by Flopy.
        53    -1E+30         0  
         1
         0
   0.000000E+00
         0
         0
INTERNAL               1 (207E15.6) -1 #hk layer 1                    
   2.145456E+01   2.666521E+01   1.292382E+01   2.604075E+01   2.086660E+01   4.836040E+01   6.112748E+01   7.030064E+01   3.170753E+01   1.197536E+01   8.108205E+00   1.535969E+01   9.368801E+00   4.046468E+01   1.063483E+02   1.127383E+02   5.805847E+01   6.841544E+01   2.239487E+01   4.210282E+01   4.715001E+01   2.260661E+02   2.076400E+02   2.861347E+01   3.463299E+01   1.015197E+02   1.639768E+02   7.540358E+01   1.763305E+02   9.692894E+01   4.883219E+01   6.395888E+01   4.792354E+01   2.092992E+02   5.111394E+01   5.285029E+01   8.974360E+01   7.637884E+01   1.152927E+02   1.581689E+02   2.213830E+02   3.567763E+02   7.026701E+01   1.522959E+02   9.262469E+01   6.213718E+01   3.663347E+01   3.941648E+01   2.897274E+01   5.268866E+01   5.217386E+01   5.130056E+01   3.816381E+01   3.931279E+01   2.607698E+01   1.697268E+01   1.602300E+01   2.849861E+01   6.195202E+00   1.021439E+01   3.257538E+01   1.184315E+02   5.632816E+01   5.820132E+01   5.255139E+01   3.932365E+01   5.466909E+01   6.621491E+01   1.843540E+01   7.368196E+00   1.018903E+01   1.321862E+01   2.078067E+01   4.266841E+00   1.047845E+01   1.239664E+01   1.634589E+01   3.371096E+01   5.456520E+01   1.808380E+01   4.933130E+01   2.529392E+01   4.130538E+00   6.036464E+00   3.474535E+00   2.011976E+01   1.321070E+01   3.604070E+01   4.326968E+01   1.624891E+01   1.624891E+01   8.802593E+00   1.394400E+01   1.394400E+01   2.505083E+01   3.260216E+01   3.260216E+01   6.615475E+01   6.615475E+01   6.615475E+01   5.225790E+01   5.225790E+01   5.225790E+01   4.001783E+01   4.001783E+01   4.001783E+01   4.001783E+01   4.001783E+01   2.220882E+01   2.220882E+01   2.220882E+01   2.220882E+01   2.220882E+01   4.001677E+01   4.001677E+01   4.001677E+01   4.001677E+01   4.001677E+01   4.001677E+01   4.001677E+01   6.738418E+01   6.738418E+01   6.738418E+01   6.738418E+01   6.738418E+01   6.738418E+01   6.738418E+01   6.738418E+01   6.738418E+01   6.738418E+01   6.680411E+01   6.680411E+01   6.680411E+01   6.680411E+01   6.680411E+01   6.680411E+01   6.680411E+01   6.680411E+01   6.680411E+01   1.145189E+02   1.145189E+02   1.145189E+02   1.145189E+02   1.145189E+02   1.145189E+02   1.145189E+02   1.497393E+02   1.497393E+02   1.497393E+02   1.497393E+02   1.497393E+02   7.299841E+01   7.299841E+01   7.299841E+01   7.299841E+01   3.421805E+02   3.421805E+02   3.421805E+02   6.965943E+01   6.965943E+01   4.484605E+01   4.484605E+01   8.802902E+01   8.802902E+01   5.786882E+01   1.939376E+02   9.053865E+01   9.053865E+01   8.217107E+01   3.126394E+01   1.668983E+01   8.465344E+01   1.112680E+02   1.328558E+02   7.606797E+01   1.639996E+01   3.213899E+01   1.391566E+02   5.776679E+01   8.775662E+01   5.528682E+01   5.292113E+01   2.537835E+01   4.304077E+01   2.786622E+01   1.026714E+01   1.940390E+01   2.190571E+01   8.774152E+01   1.712592E+02   6.443621E+01   6.056066E+01   9.303444E+00   6.941542E+00   4.643635E+00   1.960124E+01   7.594254E+01   1.832533E+02   1.552006E+02   1.121544E+02   8.891356E+01   1.273272E+01   6.996417E+00   1.044756E+01   3.100120E+01   3.215882E+01   5.447772E+01
   2.696789E+01   1.082094E+01   8.646989E+00   2.169241E+01   3.127298E+01   4.706202E+01   3.356366E+01   3.516763E+01   5.770257E+01   2.377925E+01   1.884733E+01   2.751703E+01   2.560022E+01   4.066599E+01   4.819724E+01   6.017637E+01   9.938946E+01   7.927955E+01   3.394375E+01   4.691317E+01   3.828879E+01   1.179208E+02   1.231818E+02   7.880888E+01   6.304833E+01   1.389439E+02   2.339311E+02   1.010644E+02   1.599179E+02   5.330646E+01   5.590970E+01   6.469800E+01   7.061407E+01   7.620006E+01   6.461683E+01   4.047460E+01   1.049056E+02   6.590736E+01   5.968016E+01   7.072279E+01   1.308529E+02   1.879290E+02   8.927041E+01   7.209236E+01   8.847667E+01   6.561581E+01   3.431319E+01   4.267711E+01   4.232150E+01   8.865778E+01   1.319139E+02   4.311189E+01   4.996727E+01   2.585981E+01   1.892880E+01   1.704715E+01   2.091729E+01   2.454064E+01   2.815530E+01   9.160593E+00   1.359950E+01   9.295700E+01   8.219663E+01   1.076666E+02   2.059187E+02   5.888692E+01   4.336560E+01   4.750428E+01   1.719029E+01   9.778898E+00   1.490761E+01   1.919138E+01   2.625858E+01   5.235115E+00   8.724714E+00   1.479865E+01   1.606893E+01   3.447084E+01   7.466709E+01   2.705578E+01   3.579174E+01   4.150917E+01   7.071416E+00   7.953897E+00   1.814208E+00   6.552217E+00   7.826610E+00   3.995688E+01   3.746891E+01   1.537844E+01   1.537844E+01   1.016559E+01   1.080484E+01   1.080484E+01   2.637054E+01   2.662004E+01   2.662004E+01   4.797916E+01   4.797916E+01   4.797916E+01   4.322033E+01   4.322033E+01   4.322033E+01   4.096778E+01   4.096778E+01   4.096778E+01   4.096778E+01   4.096778E+01   2.378650E+01   2.378650E+01   2.378650E+01   2.378650E+01   2.378650E+01   2.313187E+01   2.313187E+01   2.313187E+01   2.313187E+01   2.313187E+01   2.313187E+01   2.313187E+01   9.444014E+01   9.444014E+01   9.444014E+01   9.444014E+01   9.444014E+01   9.444014E+01   9.444014E+01   9.444014E+01   9.444014E+01   9.444014E+01   7.927879E+01   7.927879E+01   7.927879E+01   7.927879E+01   7.927879E+01   7.927879E+01   7.927879E+01   7.927879E+01   7.927879E+01   1.200768E+02   1.200768E+02   1.200768E+02   1.200768E+02   1.200768E+02   1.200768E+02   1.200768E+02   1.174176E+02   1.174176E+02   1.174176E+02   1.174176E+02   1.174176E+02   1.294041E+02   1.294041E+02   1.294041E+02   1.294041E+02   1.441351E+02   1.441351E+02   1.441351E+02   6.339540E+01   6.339540E+01   4.431960E+01   4.431960E+01   5.195226E+01   5.195226E+01   4.301036E+01   2.573032E+02   1.304703E+02   1.304703E+02   1.998136E+02   3.435812E+01   1.998261E+01   7.902592E+01   6.628587E+01   1.455251E+02   1.005398E+02   1.011049E+01   2.418329E+01   7.215045E+01   1.533881E+02   1.642881E+02   7.077775E+01   6.927076E+01   3.881869E+01   4.187938E+01   1.835964E+01   6.602871E+00   2.428135E+01   7.149574E+01   1.432276E+02   1.997343E+02   5.655009E+01   3.180820E+01   1.357984E+01   4.493542E+00   1.157257E+01   5.423296E+01   9.685860E+01   1.475860E+02   1.289897E+02   2.668122E+02   1.432202E+02   2.806701E+01   8.664757E+00   2.237927E+01   4.726392E+01   5.623060E+01   5.144096E+01
   2.115676E+01   9.437458E+00   6.496213E+00   2.735863E+01   5.396764E+01   4.550639E+01   9.654822E+01   7.464216E+01   7.993549E+01   6.576591E+01   4.678632E+01   4.591259E+01   1.663927E+01   3.859585E+01   1.143036E+02   6.930893E+01   4.161715E+01   2.317818E+01   4.047816E+01   4.748992E+01   1.427466E+02   8.295028E+01   8.821923E+01   1.228768E+02   4.478594E+01   2.212014E+02   1.446525E+02   1.378508E+02   1.248386E+02   4.029366E+01   1.372019E+02   6.203180E+01   1.206472E+02   2.933416E+01   3.308727E+01   6.061779E+01   8.705842E+01   3.683716E+01   1.076526E+02   5.433538E+01   1.091134E+02   1.313863E+02   7.789805E+01   9.703395E+01   3.320979E+01   4.429031E+01   2.046800E+01   2.902508E+01   8.333669E+01   7.937632E+01   1.560658E+02   8.133176E+01   3.489734E+01   3.578003E+01   3.548354E+01   1.945219E+01   1.077654E+01   1.331604E+01   1.064492E+01   1.101064E+01   2.873041E+01   5.513737E+01   5.865772E+01   1.321914E+02   2.613638E+02   1.250743E+02   7.920271E+01   6.286240E+01   1.560189E+01   9.778627E+00   1.030171E+01   3.404234E+01   1.259794E+01   6.179822E+00   1.254264E+01   2.770272E+01   1.939589E+01   5.533646E+01   7.613959E+01   1.773256E+01   4.278522E+01   3.211154E+01   1.625503E+01   1.040214E+01   2.145829E+00   1.118489E+01   1.513511E+01   3.012561E+01   2.994137E+01   9.766799E+00   9.766799E+00   8.318924E+00   2.093813E+01   2.093813E+01   2.772575E+01   3.596999E+01   3.596999E+01   7.334068E+01   7.334068E+01   7.334068E+01   6.406400E+01   6.406400E+01   6.406400E+01   4.268544E+01   4.268544E+01   4.268544E+01   4.268544E+01   4.268544E+01   1.830013E+01   1.830013E+01   1.830013E+01   1.830013E+01   1.830013E+01   2.207591E+01   2.207591E+01   2.207591E+01   2.207591E+01   2.207591E+01   2.207591E+01   2.207591E+01   1.528133E+02   1.528133E+02   1.528133E+02   1.528133E+02   1.528133E+02   1.528133E+02   1.528133E+02   1.528133E+02   1.528133E+02   1.528133E+02   1.052194E+02   1.052194E+02   1.052194E+02   1.052194E+02   1.052194E+02   1.052194E+02   1.052194E+02   1.052194E+02   1.052194E+02   8.399219E+01   8.399219E+01   8.399219E+01   8.399219E+01   8.399219E+01   8.399219E+01   8.399219E+01   1.067388E+02   1.067388E+02   1.067388E+02   1.067388E+02   1.067388E+02   1.110524E+02   1.110524E+02   1.110524E+02   1.110524E+02   1.712345E+02   1.712345E+02   1.712345E+02   4.440905E+01   4.440905E+01   5.510957E+01   5.510957E+01   2.656255E+01   2.656255E+01   6.878162E+01   1.041412E+02   1.375844E+02   1.375844E+02   1.979240E+02   6.256614E+01   5.106620E+01   6.575329E+01   1.162049E+02   1.217750E+02   1.388900E+02   1.780572E+01   2.253723E+01   8.127560E+01   1.330447E+02   1.149946E+02   9.023555E+01   3.223956E+01   4.538526E+01   2.448712E+01   2.168721E+01   8.636318E+00   2.842631E+01   7.489087E+01   6.039666E+01   8.552750E+01   6.259073E+01   3.948461E+01   1.135306E+01   1.666267E+01   2.622573E+01   3.839816E+01   1.382641E+02   1.760009E+02   1.315061E+02   2.069510E+02   9.528878E+01   3.432317E+01   2.500172E+01   6.215223E+01   7.665639E+01   6.016716E+01   1.153292E+02
   7.254331E+00   1.118970E+01   1.096883E+01   3.416050E+01   4.670263E+01   6.877415E+01   1.292068E+02   6.491109E+01   5.656071E+01   3.562738E+01   5.399813E+01   6.641417E+01   6.473975E+01   3.206945E+01   6.221639E+01   1.225010E+02   6.975639E+01   2.516242E+01   3.515979E+01   8.594637E+01   9.179061E+01   4.764698E+01   1.046716E+02   1.235005E+02   4.643167E+01   2.741476E+02   3.091200E+02   6.742985E+01   9.962479E+01   6.929671E+01   1.166621E+02   5.425465E+01   6.528689E+01   1.175920E+01   7.979631E+00   7.387556E+01   8.562440E+01   3.945573E+01   6.570435E+01   1.341423E+02   5.140810E+01   4.762635E+01   4.571714E+01   8.440646E+01   5.269312E+01   4.952936E+01   1.892518E+01   1.765799E+01   4.829601E+01   5.735340E+01   7.627517E+01   1.294675E+02   3.405379E+01   5.447311E+01   2.672158E+01   1.387036E+01   6.413235E+00   1.089477E+01   1.277027E+01   8.360055E+00   1.211943E+02   5.042486E+01   5.750500E+01   1.181168E+02   3.168378E+02   1.816763E+02   7.739217E+01   5.344417E+01   2.023590E+01   1.342629E+01   1.278877E+01   3.582652E+01   1.577107E+01   8.761425E+00   1.090433E+01   3.235415E+01   2.442408E+01   6.720623E+01   3.688889E+01   2.071629E+01   2.151590E+01   3.433853E+01   3.873135E+01   1.517582E+01   1.029669E+01   1.097840E+01   1.116684E+01   1.375549E+01   1.975821E+01   1.069511E+01   1.069511E+01   1.219763E+01   2.493318E+01   2.493318E+01   1.327512E+01   7.203208E+01   7.203208E+01   1.032679E+02   1.032679E+02   1.032679E+02   8.229669E+01   8.229669E+01   8.229669E+01   7.783978E+01   7.783978E+01   7.783978E+01   7.783978E+01   7.783978E+01   3.950377E+01   3.950377E+01   3.950377E+01   3.950377E+01   3.950377E+01   3.208456E+01   3.208456E+01   3.208456E+01   3.208456E+01   3.208456E+01   3.208456E+01   3.208456E+01   1.111540E+02   1.111540E+02   1.111540E+02   1.111540E+02   1.111540E+02   1.111540E+02   1.111540E+02   1.111540E+02   1.111540E+02   1.111540E+02   5.485784E+01   5.485784E+01   5.485784E+01   5.485784E+01   5.485784E+01   5.485784E+01   5.485784E+01   5.485784E+01   5.485784E+01   7.561471E+01   7.561471E+01   7.561471E+01   7.561471E+01   7.561471E+01   7.561471E+01   7.561471E+01   6.687904E+01   6.687904E+01   6.687904E+01   6.687904E+01   6.687904E+01   5.902017E+01   5.902017E+01   5.902017E+01   5.902017E+01   1.094224E+02   1.094224E+02   1.094224E+02   2.449745E+01   2.449745E+01   3.702533E+01   3.702533E+01   3.583904E+01   3.583904E+01   5.343010E+01   1.086541E+02   3.731682E+02   3.731682E+02   1.000684E+02   7.379129E+01   3.504672E+01   5.298369E+01   1.539291E+02   1.045204E+02   9.697501E+01   1.165007E+01   4.529766E+01   6.857201E+01   7.121774E+01   7.190862E+01   6.885329E+01   3.493278E+01   4.813095E+01   2.770043E+01   1.654854E+01   2.457313E+01   2.942527E+01   4.071171E+01   4.196018E+01   5.001414E+01   4.956068E+01   4.351891E+01   1.793211E+01   1.638287E+01   1.488713E+01   3.071541E+01   7.790231E+01   5.421685E+01   1.388628E+02   1.800864E+02   4.611239E+01   5.728326E+01   4.998835E+01   5.721452E+01   7.622055E+01   6.727795E+01   1.232722E+02
   8.371600E+00   3.021218E+00   1.021415E+01   4.301485E+01   5.730044E+01   9.120406E+01   1.037387E+02   1.263417E+02   1.287974E+02   1.645495E+02   6.519032E+01   6.440603E+01   1.035584E+02   3.748719E+01   5.382748E+01   5.663637E+01   2.731660E+01   1.643870E+01   2.953912E+01   7.537470E+01   3.760302E+01   1.840219E+01   7.397442E+01   1.206392E+02   1.492867E+02   2.027278E+02   1.658552E+02   3.698314E+01   1.160789E+02   1.026531E+02   1.911993E+02   1.206803E+02   4.336269E+01   1.569108E+01   5.804906E+01   8.418275E+01   9.313213E+01   7.149374E+01   6.052036E+01   1.179967E+02   4.729411E+01   1.312656E+02   1.001828E+02   4.149842E+01   4.415681E+01   4.396272E+01   1.001963E+01   1.919768E+01   7.062946E+01   4.840156E+01   4.054522E+01   9.205602E+01   3.400839E+01   5.522311E+01   4.694600E+01   1.909146E+01   1.054386E+01   1.102116E+01   1.124454E+01   4.011251E+01   1.032278E+02   3.157528E+01   5.073080E+01   2.127835E+02   1.125136E+02   1.731050E+02   1.056737E+02   7.821905E+01   4.167252E+01   2.893414E+01   2.625683E+01   4.646145E+01   3.398948E+01   1.361127E+01   6.610641E+00   2.147810E+01   9.719397E+00   5.386012E+01   1.225594E+01   4.272638E+01   3.423669E+01   8.413004E+01   6.544238E+01   4.654609E+01   3.475131E+01   1.381285E+01   1.353209E+01   5.800461E+00   1.864340E+01   1.539571E+01   1.539571E+01   3.144772E+01   2.665231E+01   2.665231E+01   3.357133E+01   6.872044E+01   6.872044E+01   1.179676E+02   1.179676E+02   1.179676E+02   1.222585E+02   1.222585E+02   1.222585E+02   6.167085E+01   6.167085E+01   6.167085E+01   6.167085E+01   6.167085E+01   3.433011E+01   3.433011E+01   3.433011E+01   3.433011E+01   3.433011E+01   3.230412E+01   3.230412E+01   3.230412E+01   3.230412E+01   3.230412E+01   3.230412E+01   3.230412E+01   1.036624E+02   1.036624E+02   1.036624E+02   1.036624E+02   1.036624E+02   1.036624E+02   1.036624E+02   1.036624E+02   1.036624E+02   1.036624E+02   7.340576E+01   7.340576E+01   7.340576E+01   7.340576E+01   7.340576E+01   7.340576E+01   7.340576E+01   7.340576E+01   7.340576E+01   5.943783E+01   5.943783E+01   5.943783E+01   5.943783E+01   5.943783E+01   5.943783E+01   5.943783E+01   5.362033E+01   5.362033E+01   5.362033E+01   5.362033E+01   5.362033E+01   8.565813E+01   8.565813E+01   8.565813E+01   8.565813E+01   8.076939E+01   8.076939E+01   8.076939E+01   5.311803E+01   5.311803E+01   3.145293E+01   3.145293E+01   2.087260E+01   2.087260E+01   1.270333E+02   2.397277E+02   2.539301E+02   2.539301E+02   2.055547E+02   4.000798E+01   7.642135E+01   4.814560E+01   7.539882E+01   1.347022E+02   5.353048E+01   2.639593E+01   5.065576E+01   4.644566E+01   9.216856E+01   7.217305E+01   8.347964E+01   5.860786E+01   3.152857E+01   3.431557E+01   1.349365E+01   2.194464E+01   3.346472E+01   1.660502E+01   2.041719E+01   6.238527E+01   1.165216E+02   4.562490E+01   4.047563E+01   1.462503E+01   4.244917E+01   1.827195E+01   4.977383E+01   4.305070E+01   6.043117E+01   7.339817E+01   7.981927E+01   7.440504E+01   7.627709E+01   8.482363E+01   6.566963E+01   5.976332E+01   6.573393E+01
   4.637454E+00   2.703433E+00   1.819099E+01   2.813443E+01   3.446815E+01   9.187812E+01   5.408385E+01   1.405109E+02   1.151255E+02   1.006376E+02   7.459232E+01   5.008409E+01   8.807754E+01   3.973449E+01   8.072968E+01   6.086738E+01   4.830181E+01   3.008250E+01   2.857006E+01   3.063159E+01   1.662209E+01   1.103831E+01   3.510070E+01   1.730913E+02   2.126730E+02   1.687166E+02   1.534598E+02   4.609108E+01   8.289584E+01   1.518139E+02   1.383530E+02   7.700779E+01   5.681108E+01   2.354120E+01   7.751843E+01   7.130387E+01   5.021817E+01   6.068248E+01   1.276324E+02   6.049660E+01   3.459299E+01   1.341218E+02   1.689964E+02   8.248413E+01   4.500732E+01   4.602689E+01   1.236905E+01   1.504911E+01   4.239578E+01   3.677162E+01   3.437495E+01   6.377608E+01   4.870789E+01   2.520681E+01   3.776665E+01   1.641284E+01   7.149126E+00   1.957504E+01   2.175731E+01   3.284578E+01   1.103815E+02   3.797284E+01   3.151846E+01   9.437637E+01   7.339005E+01   9.881251E+01   1.011320E+02   1.303481E+02   4.427591E+01   5.573957E+01   2.976410E+01   5.730820E+01   4.034632E+01   1.467504E+01   1.303634E+01   1.832947E+01   1.756896E+01   5.698735E+01   1.789758E+01   2.020377E+01   5.809157E+01   7.260616E+01   6.571215E+01   3.241499E+01   3.266513E+01   2.035936E+01   2.058480E+01   5.402975E+00   4.252789E+00   8.380424E+00   8.380424E+00   3.951653E+01   2.926547E+01   2.926547E+01   3.047225E+01   1.222767E+02   1.222767E+02   1.806606E+02   1.806606E+02   1.806606E+02   8.914439E+01   8.914439E+01   8.914439E+01   3.942419E+01   3.942419E+01   3.942419E+01   3.942419E+01   3.942419E+01   2.352964E+01   2.352964E+01   2.352964E+01   2.352964E+01   2.352964E+01   2.947846E+01   2.947846E+01   2.947846E+01   2.947846E+01   2.947846E+01   2.947846E+01   2.947846E+01   9.676043E+01   9.676043E+01   9.676043E+01   9.676043E+01   9.676043E+01   9.676043E+01   9.676043E+01   9.676043E+01   9.676043E+01   9.676043E+01   7.339413E+01   7.339413E+01   7.339413E+01   7.339413E+01   7.339413E+01   7.339413E+01   7.339413E+01   7.339413E+01   7.339413E+01   4.538116E+01   4.538116E+01   4.538116E+01   4.538116E+01   4.538116E+01   4.538116E+01   4.538116E+01   3.691990E+01   3.691990E+01   3.691990E+01   3.691990E+01   3.691990E+01   7.818297E+01   7.818297E+01   7.818297E+01   7.818297E+01   7.644317E+01   7.644317E+01   7.644317E+01   4.912110E+01   4.912110E+01   3.791513E+01   3.791513E+01   4.127182E+01   4.127182E+01   7.612370E+01   1.578083E+02   3.581254E+02   3.581254E+02   4.279142E+02   1.370938E+02   5.887270E+01   1.214767E+02   6.415388E+01   1.377442E+02   5.813177E+01   4.895040E+01   5.532581E+01   7.713265E+01   1.279177E+02   7.618267E+01   7.447251E+01   7.279546E+01   2.572233E+01   2.664897E+01   1.350480E+01   1.205597E+01   3.122053E+01   2.197573E+01   3.136752E+01   1.289055E+02   2.254053E+02   6.205948E+01   1.226169E+02   4.503502E+01   1.986500E+01   1.744903E+01   3.156555E+01   1.603344E+01   3.613915E+01   4.734118E+01   7.587434E+01   6.710544E+01   1.017525E+02   5.119189E+01   3.650509E+01   3.277734E+01   1.379840E+02
   3.931141E+00   2.763684E+00   6.399920E+00   1.089535E+01   3.115038E+01   6.531358E+01   6.568288E+01   2.463893E+02   7.191129E+01   7.674391E+01   5.427326E+01   7.485621E+01   1.357046E+02   7.498221E+01   6.596816E+01   4.390635E+01   2.454282E+01   1.647167E+01   1.952025E+01   1.455353E+01   7.955295E+00   8.280026E+00   1.908412E+01   6.648238E+01   9.079790E+01   7.985919E+01   1.555606E+02   8.333673E+01   2.192390E+02   2.201147E+02   1.949359E+02   6.383052E+01   1.020442E+02   4.485481E+01   5.032093E+01   9.242037E+01   8.086853E+01   3.108545E+01   1.973589E+02   1.603412E+02   7.292064E+01   1.265312E+02   2.425916E+02   4.563218E+01   4.069359E+01   2.199587E+01   8.280107E+00   2.202754E+01   4.066525E+01   6.461258E+01   3.040945E+01   3.903772E+01   3.147386E+01   2.884041E+01   2.287225E+01   2.603798E+01   1.270394E+01   1.806832E+01   8.688759E+01   4.549092E+01   1.151329E+02   3.624989E+01   3.109493E+01   1.140741E+02   7.390250E+01   7.993018E+01   1.426553E+02   9.165125E+01   3.938699E+01   7.797717E+01   5.396797E+01   5.854601E+01   3.760140E+01   2.427888E+01   1.810710E+01   2.042449E+01   1.605987E+01   1.915689E+01   4.833296E+01   4.573700E+01   1.338019E+02   1.141958E+02   9.404857E+01   5.775141E+01   2.652021E+01   2.903519E+01   2.291283E+01   1.333544E+01   6.186428E+00   1.523025E+01   1.523025E+01   3.065137E+01   4.365870E+01   4.365870E+01   5.239746E+01   8.593764E+01   8.593764E+01   1.296030E+02   1.296030E+02   1.296030E+02   9.476135E+01   9.476135E+01   9.476135E+01   3.470554E+01   3.470554E+01   3.470554E+01   3.470554E+01   3.470554E+01   3.163053E+01   3.163053E+01   3.163053E+01   3.163053E+01   3.163053E+01   6.661744E+01   6.661744E+01   6.661744E+01   6.661744E+01   6.661744E+01   6.661744E+01   6.661744E+01   7.352069E+01   7.352069E+01   7.352069E+01   7.352069E+01   7.352069E+01   7.352069E+01   7.352069E+01   7.352069E+01   7.352069E+01   7.352069E+01   5.899726E+01   5.899726E+01   5.899726E+01   5.899726E+01   5.899726E+01   5.899726E+01   5.899726E+01   5.899726E+01   5.899726E+01   4.249744E+01   4.249744E+01   4.249744E+01   4.249744E+01   4.249744E+01   4.249744E+01   4.249744E+01   6.902043E+01   6.902043E+01   6.902043E+01   6.902043E+01   6.902043E+01   6.348830E+01   6.348830E+01   6.348830E+01   6.348830E+01   6.501992E+01   6.501992E+01   6.501992E+01   3.990839E+01   3.990839E+01   9.541830E+01   9.541830E+01   9.945881E+01   9.945881E+01   4.078896E+01   1.776229E+02   2.968581E+02   2.968581E+02   2.131044E+02   1.203904E+02   6.070810E+01   1.541221E+02   8.855613E+01   7.629778E+01   7.319488E+01   5.224734E+01   7.445766E+01   7.369643E+01   1.520737E+02   9.044652E+01   8.385827E+01   1.310555E+02   3.647968E+01   6.292646E+01   4.449842E+01   8.477846E+00   3.233517E+01   3.700811E+01   5.088571E+01   1.153534E+02   5.363449E+02   8.488218E+01   3.150127E+02   2.867418E+01   1.363904E+01   1.264713E+01   5.636573E+00   1.167364E+01   1.969393E+01   4.684579E+01   5.975531E+01   3.910942E+01   2.764674E+01   2.918736E+01   5.634759E+01   3.614407E+01   9.602435E+01
   1.548113E+01   9.068053E+00   6.950627E+00   9.501952E+00   2.896492E+01   2.632079E+01   4.406107E+01   7.234248E+01   6.048646E+01   6.898740E+01   3.299866E+01   9.828825E+01   1.208100E+02   3.349474E+01   6.344924E+01   1.558478E+01   1.324581E+01   1.218461E+01   9.193387E+00   1.119496E+01   8.518674E+00   1.457386E+01   1.395550E+01   2.801146E+01   7.706266E+01   7.178343E+01   2.151681E+02   2.754970E+02   1.633562E+02   1.123519E+02   1.039106E+02   1.361528E+02   1.113418E+02   7.599008E+01   5.063091E+01   3.655441E+01   4.399322E+01   4.510986E+01   1.385039E+02   1.290440E+02   1.172748E+02   1.035691E+02   1.424447E+02   1.344065E+01   2.785501E+01   3.130726E+01   7.342036E+00   4.501942E+01   4.114106E+01   5.990198E+01   3.463559E+01   1.429018E+01   3.614793E+01   4.837941E+01   3.285664E+01   2.540484E+01   3.492969E+01   4.676575E+01   1.140517E+02   5.492385E+01   1.538352E+02   9.995827E+01   3.010891E+01   4.552853E+01   6.543748E+01   8.893597E+01   1.539955E+02   4.897055E+01   5.196710E+01   8.773897E+01   1.258177E+02   1.693126E+02   9.225464E+01   2.080401E+01   1.906615E+01   3.051441E+01   2.384156E+01   1.878861E+01   8.657794E+01   6.346688E+01   1.538425E+02   7.504526E+01   1.119717E+02   9.824992E+01   4.186702E+01   1.617845E+01   8.193293E+00   1.293584E+01   7.638976E+00   1.001599E+01   1.001599E+01   3.354476E+01   3.531337E+01   3.531337E+01   7.172654E+01   1.512907E+02   1.512907E+02   2.063822E+02   2.063822E+02   2.063822E+02   1.470233E+02   1.470233E+02   1.470233E+02   4.007630E+01   4.007630E+01   4.007630E+01   4.007630E+01   4.007630E+01   2.578858E+01   2.578858E+01   2.578858E+01   2.578858E+01   2.578858E+01   4.610083E+01   4.610083E+01   4.610083E+01   4.610083E+01   4.610083E+01   4.610083E+01   4.610083E+01   1.708091E+02   1.708091E+02   1.708091E+02   1.708091E+02   1.708091E+02   1.708091E+02   1.708091E+02   1.708091E+02   1.708091E+02   1.708091E+02   1.394442E+02   1.394442E+02   1.394442E+02   1.394442E+02   1.394442E+02   1.394442E+02   1.394442E+02   1.394442E+02   1.394442E+02   4.421702E+01   4.421702E+01   4.421702E+01   4.421702E+01   4.421702E+01   4.421702E+01   4.421702E+01   5.440015E+01   5.440015E+01   5.440015E+01   5.440015E+01   5.440015E+01   7.342833E+01   7.342833E+01   7.342833E+01   7.342833E+01   1.045056E+02   1.045056E+02   1.045056E+02   7.953007E+01   7.953007E+01   9.870916E+01   9.870916E+01   1.034552E+02   1.034552E+02   5.857764E+01   9.235565E+01   3.053684E+02   3.053684E+02   2.925885E+02   1.927787E+02   1.115764E+02   7.943679E+01   6.292470E+01   2.797210E+01   4.996236E+01   3.258445E+01   5.490617E+01   7.339945E+01   7.008028E+01   9.280476E+01   1.651135E+02   1.768519E+02   9.309786E+01   8.885294E+01   8.119588E+01   1.388997E+01   4.006300E+01   3.406765E+01   4.430574E+01   6.498225E+01   3.851739E+02   1.608279E+02   1.970753E+02   2.857777E+01   4.285715E+01   8.823916E+00   5.877409E+00   1.621815E+01   1.555871E+01   4.854107E+01   4.408302E+01   6.131586E+01   3.331001E+01   6.545277E+01   8.269965E+01   2.704890E+01   5.667971E+01
   1.503010E+01   1.273988E+01   8.109203E+00   1.035705E+01   2.320619E+01   3.312153E+01   4.578640E+01   4.270683E+01   7.345067E+01   7.564085E+01   7.625239E+01   2.925688E+02   1.716994E+02   4.125743E+01   3.268863E+01   1.430650E+01   7.958656E+00   1.764019E+01   9.637214E+00   1.075875E+01   6.037971E+00   1.086242E+01   1.360671E+01   3.223384E+01   8.920318E+01   1.886987E+02   1.897170E+02   2.334149E+02   1.524103E+02   8.776271E+01   6.544131E+01   1.241602E+02   1.402654E+02   8.166506E+01   4.008941E+01   1.968902E+01   1.758828E+01   4.706811E+01   1.338562E+02   1.351452E+02   1.957491E+02   1.366561E+02   8.416830E+01   2.405409E+01   1.442707E+01   3.394810E+01   1.485813E+01   4.054049E+01   6.477175E+01   3.173441E+01   2.205037E+01   1.705581E+01   3.900783E+01   1.983047E+01   5.862212E+01   3.410146E+01   5.149724E+01   1.226420E+01   5.624267E+01   4.323597E+01   7.724668E+01   3.002708E+01   2.540300E+01   1.977739E+01   4.757467E+01   7.025861E+01   8.059721E+01   5.612268E+01   6.277174E+01   4.761796E+01   1.566612E+02   9.514085E+01   7.579632E+01   3.614954E+01   3.681822E+01   4.086383E+01   1.538124E+01   2.374991E+01   6.493987E+01   1.259520E+02   1.415609E+02   7.925110E+01   4.665705E+01   8.940173E+01   6.591805E+01   2.803297E+01   1.228881E+01   2.251151E+01   1.029559E+01   8.883233E+00   8.883233E+00   5.491648E+01   5.484639E+01   5.484639E+01   1.398355E+02   2.562920E+02   2.562920E+02   4.098187E+02   4.098187E+02   4.098187E+02   9.140783E+01   9.140783E+01   9.140783E+01   7.376643E+01   7.376643E+01   7.376643E+01   7.376643E+01   7.376643E+01   4.946474E+01   4.946474E+01   4.946474E+01   4.946474E+01   4.946474E+01   2.980728E+01   2.980728E+01   2.980728E+01   2.980728E+01   2.980728E+01   2.980728E+01   2.980728E+01   1.004683E+02   1.004683E+02   1.004683E+02   1.004683E+02   1.004683E+02   1.004683E+02   1.004683E+02   1.004683E+02   1.004683E+02   1.004683E+02   7.481303E+01   7.481303E+01   7.481303E+01   7.481303E+01   7.481303E+01   7.481303E+01   7.481303E+01   7.481303E+01   7.481303E+01   2.623187E+01   2.623187E+01   2.623187E+01   2.623187E+01   2.623187E+01   2.623187E+01   2.623187E+01   4.952431E+01   4.952431E+01   4.952431E+01   4.952431E+01   4.952431E+01   9.707320E+01   9.707320E+01   9.707320E+01   9.707320E+01   9.572221E+01   9.572221E+01   9.572221E+01   1.575600E+02   1.575600E+02   1.193748E+02   1.193748E+02   9.888301E+01   9.888301E+01   5.418491E+01   5.710640E+01   1.664789E+02   1.664789E+02   2.347417E+02   8.401585E+01   6.263862E+01   8.094267E+01   4.687944E+01   1.754951E+01   4.873360E+01   4.884328E+01   4.160905E+01   7.698080E+01   6.089427E+01   1.383740E+02   2.018190E+02   3.930110E+02   8.254769E+01   7.450700E+01   5.164889E+01   3.316666E+01   7.055051E+01   3.986199E+01   2.700833E+01   4.367145E+01   1.589833E+02   1.168401E+02   1.606103E+02   1.412904E+01   4.071431E+01   1.200274E+01   1.161975E+01   1.402278E+01   3.277805E+01   4.609478E+01   6.987376E+01   5.860991E+01   1.573847E+02   5.641307E+01   3.754657E+01   2.146576E+01   8.505721E+01