MODPATH_TIMESERIES_FILE         7         2
    2   0.0000000000E+00  0.0000000000E+00  0.0000000000E+00  0.0000000000E+00
END HEADER
       0       1  0.0000000000E+00         1    1         1     16483  0.4166666667E-01  0.4166666667E-01  0.5000000000E+00  0.9995360867E+03  0.4992921557E+03 -0.6836675763E+01         1
       0       1  0.0000000000E+00         2    1         2     16483  0.1250000000E+00  0.4166666667E-01  0.5000000000E+00  0.9996194200E+03  0.4992921557E+03 -0.6836675763E+01         1
       0       1  0.0000000000E+00         3    1         3     16483  0.2083333333E+00  0.4166666667E-01  0.5000000000E+00  0.9997027533E+03  0.4992921557E+03 -0.6836675763E+01         1
       0       1  0.0000000000E+00         4    1         4     16483  0.2916666667E+00  0.4166666667E-01  0.5000000000E+00  0.9997860867E+03  0.4992921557E+03 -0.6836675763E+01         1
       0       1  0.0000000000E+00         5    1         5     16483  0.3750000000E+00  0.4166666667E-01  0.5000000000E+00  0.9998694200E+03  0.4992921557E+03 -0.6836675763E+01         1
       0       1  0.0000000000E+00         6    1         6     16483  0.4583333333E+00  0.4166666667E-01  0.5000000000E+00  0.9999527533E+03  0.4992921557E+03 -0.6836675763E+01         1
       0       1  0.0000000000E+00         7    1         7     16483  0.5416666667E+00  0.4166666667E-01  0.5000000000E+00  0.1000036087E+04  0.4992921557E+03 -0.6836675763E+01         1
       0       1  0.0000000000E+00         8    1         8     16483  0.6250000000E+00  0.4166666667E-01  0.5000000000E+00  0.1000119420E+04  0.4992921557E+03 -0.6836675763E+01         1
       0       1  0.0000000000E+00         9    1         9     16483  0.7083333333E+00  0.4166666667E-01  0.5000000000E+00  0.1000202753E+04  0.4992921557E+03 -0.6836675763E+01         1
       0       1  0.0000000000E+00        10    1        10     16483  0.7916666667E+00  0.4166666667E-01  0.5000000000E+00  0.1000286087E+04  0.4992921557E+03 -0.6836675763E+01         1
       0       1  0.0000000000E+00        11    1        11     16483  0.8750000000E+00  0.4166666667E-01  0.5000000000E+00  0.1000369420E+04  0.4992921557E+03 -0.6836675763E+01         1
       0       1  0.0000000000E+00        12    1        12     16483  0.9583333333E+00  0.4166666667E-01  0.5000000000E+00  0.1000452753E+04  0.4992921557E+03 -0.6836675763E+01         1
       0       1  0.0000000000E+00        13    1        13     16483  0.4166666667E-01  0.1250000000E+00  0.5000000000E+00  0.9995360867E+03  0.4993754890E+03 -0.6836675763E+01         1
       0       1  0.0000000000E+00        14    1        14     16483  0.1250000000E+00  0.1250000000E+00  0.5000000000E+00  0.9996194200E+03  0.4993754890E+03 -0.6836675763E+01         1
       0       1  0.0000000000E+00        15    1        15     16483  0.2083333333E+00  0.1250000000E+00  0.5000000000E+00  0.9997027533E+03  0.4993754890E+03 -0.6836675763E+01         1
       0       1  0.0000000000E+00        16    1        16     16483  0.2916666667E+00  0.1250000000E+00  0.5000000000E+00  0.9997860867E+03  0.4993754890E+03 -0.6836675763E+01         1
       0       1  0.0000000000E+00        17    1        17     16483  0.3750000000E+00  0.1250000000E+00  0.5000000000E+00  0.9998694200E+03  0.4993754890E+03 -0.6836675763E+01         1
       0       1  0.0000000000E+00        18    1        18     16483  0.4583333333E+00  0.1250000000E+00  0.5000000000E+00  0.9999527533E+03  0.4993754890E+03 -0.6836675763E+01         1
       0       1  0.0000000000E+00        19    1        19     16483  0.5416666667E+00  0.1250000000E+00  0.5000000000E+00  0.1000036087E+04  0.4993754890E+03 -0.6836675763E+01         1
       0       1  0.0000000000E+00        20    1        20     16483  0.6250000000E+00  0.1250000000E+00  0.5000000000E+00  0.1000119420E+04  0.4993754890E+03 -0.6836675763E+01         1
       0       1  0.0000000000E+00        21    1        21     16483  0.7083333333E+00  0.1250000000E+00  0.5000000000E+00  0.1000202753E+04  0.4993754890E+03 -0.6836675763E+01         1
       0       1  0.0000000000E+00        22    1        22     16483  0.7916666667E+00  0.1250000000E+00  0.5000000000E+00  0.1000286087E+04  0.4993754890E+03 -0.6836675763E+01         1
       0       1  0.0000000000E+00        23    1        23     16483  0.8750000000E+00  0.1250000000E+00  0.5000000000E+00  0.1000369420E+04  0.4993754890E+03 -0.6836675763E+01         1
       0       1  0.0000000000E+00        24    1        24     16483  0.9583333333E+00  0.1250000000E+00  0.5000000000E+00  0.1000452753E+04  0.4993754890E+03 -0.6836675763E+01         1
       0       1  0.0000000000E+00        25    1        25     16483  0.4166666667E-01  0.2083333333E+00  0.5000000000E+00  0.9995360867E+03  0.4994588223E+03 -0.6836675763E+01         1
       0       1  0.0000000000E+00        26    1        26     16483  0.1250000000E+00  0.2083333333E+00  0.5000000000E+00  0.9996194200E+03  0.4994588223E+03 -0.6836675763E+01         1
       0       1  0.0000000000E+00        27    1        27     16483  0.2083333333E+00  0.2083333333E+00  0.5000000000E+00  0.9997027533E+03  0.4994588223E+03 -0.6836675763E+01         1
       0       1  0.0000000000E+00        28    1        28     16483  0.2916666667E+00  0.2083333333E+00  0.5000000000E+00  0.9997860867E+03  0.4994588223E+03 -0.6836675763E+01         1
       0       1  0.0000000000E+00        29    1        29     16483  0.3750000000E+00  0.2083333333E+00  0.5000000000E+00  0.9998694200E+03  0.4994588223E+03 -0.6836675763E+01         1
       0       1  0.0000000000E+00        30    1        30     16483  0.4583333333E+00  0.2083333333E+00  0.5000000000E+00  0.9999527533E+03  0.4994588223E+03 -0.6836675763E+01         1
       0       1  0.0000000000E+00        31    1        31     16483  0.5416666667E+00  0.2083333333E+00  0.5000000000E+00  0.1000036087E+04  0.4994588223E+03 -0.6836675763E+01         1
       0       1  0.0000000000E+00        32    1        32     16483  0.6250000000E+00  0.2083333333E+00  0.5000000000E+00  0.1000119420E+04  0.4994588223E+03 -0.6836675763E+01         1
       0       1  0.0000000000E+00        33    1        33     16483  0.7083333333E+00  0.2083333333E+00  0.5000000000E+00  0.1000202753E+04  0.4994588223E+03 -0.6836675763E+01         1
       0       1  0.0000000000E+00        34    1        34     16483  0.7916666667E+00  0.2083333333E+00  0.5000000000E+00  0.1000286087E+04  0.4994588223E+03 -0.6836675763E+01         1
       0       1  0.0000000000E+00        35    1        35     16483  0.8750000000E+00  0.2083333333E+00  0.5000000000E+00  0.1000369420E+04  0.4994588223E+03 -0.6836675763E+01         1
       0       1  0.0000000000E+00        36    1        36     16483  0.9583333333E+00  0.2083333333E+00  0.5000000000E+00  0.1000452753E+04  0.4994588223E+03 -0.6836675763E+01         1
       0       1  0.0000000000E+00        37    1        37     16483  0.4166666667E-01  0.2916666667E+00  0.5000000000E+00  0.9995360867E+03  0.4995421557E+03 -0.6836675763E+01         1
       0       1  0.0000000000E+00        38    1        38     16483  0.1250000000E+00  0.2916666667E+00  0.5000000000E+00  0.9996194200E+03  0.4995421557E+03 -0.6836675763E+01         1
       0       1  0.0000000000E+00        39    1        39     16483  0.2083333333E+00  0.2916666667E+00  0.5000000000E+00  0.9997027533E+03  0.4995421557E+03 -0.6836675763E+01         1
       0       1  0.0000000000E+00        40    1        40     16483  0.2916666667E+00  0.2916666667E+00  0.5000000000E+00  0.9997860867E+03  0.4995421557E+03 -0.6836675763E+01         1
       0       1  0.0000000000E+00        41    1        41     16483  0.3750000000E+00  0.2916666667E+00  0.5000000000E+00  0.9998694200E+03  0.4995421557E+03 -0.6836675763E+01         1
       0       1  0.0000000000E+00        42    1        42     16483  0.4583333333E+00  0.2916666667E+00  0.5000000000E+00  0.9999527533E+03  0.4995421557E+03 -0.6836675763E+01         1
       0       1  0.0000000000E+00        43    1        43     16483  0.5416666667E+00  0.2916666667E+00  0.5000000000E+00  0.1000036087E+04  0.4995421557E+03 -0.6836675763E+01         1
       0       1  0.0000000000E+00        44    1        44     16483  0.6250000000E+00  0.2916666667E+00  0.5000000000E+00  0.1000119420E+04  0.4995421557E+03 -0.6836675763E+01         1
       0       1  0.0000000000E+00        45    1        45     16483  0.7083333333E+00  0.2916666667E+00  0.5000000000E+00  0.1000202753E+04  0.4995421557E+03 -0.6836675763E+01         1
       0       1  0.0000000000E+00        46    1        46     16483  0.7916666667E+00  0.2916666667E+00  0.5000000000E+00  0.1000286087E+04  0.4995421557E+03 -0.6836675763E+01         1
       0       1  0.0000000000E+00        47    1        47     16483  0.8750000000E+00  0.2916666667E+00  0.5000000000E+00  0.1000369420E+04  0.4995421557E+03 -0.6836675763E+01         1
       0       1  0.0000000000E+00        48    1        48     16483  0.9583333333E+00  0.2916666667E+00  0.5000000000E+00  0.1000452753E+04  0.4995421557E+03 -0.6836675763E+01         1
       0       1  0.0000000000E+00        49    1        49     16483  0.4166666667E-01  0.3750000000E+00  0.5000000000E+00  0.9995360867E+03  0.4996254890E+03 -0.6836675763E+01         1
       0       1  0.0000000000E+00        50    1        50     16483  0.1250000000E+00  0.3750000000E+00  0.5000000000E+00  0.9996194200E+03  0.4996254890E+03 -0.6836675763E+01         1
       0       1  0.0000000000E+00        51    1        51     16483  0.2083333333E+00  0.3750000000E+00  0.5000000000E+00  0.9997027533E+03  0.4996254890E+03 -0.6836675763E+01         1
       0       1  0.0000000000E+00        52    1        52     16483  0.2916666667E+00  0.3750000000E+00  0.5000000000E+00  0.9997860867E+03  0.4996254890E+03 -0.6836675763E+01         1
       0       1  0.0000000000E+00        53    1        53     16483  0.3750000000E+00  0.3750000000E+00  0.5000000000E+00  0.9998694200E+03  0.4996254890E+03 -0.6836675763E+01         1
       0       1  0.0000000000E+00        54    1        54     16483  0.4583333333E+00  0.3750000000E+00  0.5000000000E+00  0.9999527533E+03  0.4996254890E+03 -0.6836675763E+01         1
       0       1  0.0000000000E+00        55    1        55     16483  0.5416666667E+00  0.3750000000E+00  0.5000000000E+00  0.1000036087E+04  0.4996254890E+03 -0.6836675763E+01         1
       0       1  0.0000000000E+00        56    1        56     16483  0.6250000000E+00  0.3750000000E+00  0.5000000000E+00  0.1000119420E+04  0.4996254890E+03 -0.6836675763E+01         1
       0       1  0.0000000000E+00        57    1        57     16483  0.7083333333E+00  0.3750000000E+00  0.5000000000E+00  0.1000202753E+04  0.4996254890E+03 -0.6836675763E+01         1
       0       1  0.0000000000E+00        58    1        58     16483  0.7916666667E+00  0.3750000000E+00  0.5000000000E+00  0.1000286087E+04  0.4996254890E+03 -0.6836675763E+01         1
       0       1  0.0000000000E+00        59    1        59     16483  0.8750000000E+00  0.3750000000E+00  0.5000000000E+00  0.1000369420E+04  0.4996254890E+03 -0.6836675763E+01         1
       0       1  0.0000000000E+00        60    1        60     16483  0.9583333333E+00  0.3750000000E+00  0.5000000000E+00  0.1000452753E+04  0.4996254890E+03 -0.6836675763E+01         1
       0       1  0.0000000000E+00        61    1        61     16483  0.4166666667E-01  0.4583333333E+00  0.5000000000E+00  0.9995360867E+03  0.4997088223E+03 -0.6836675763E+01         1
       0       1  0.0000000000E+00        62    1        62     16483  0.1250000000E+00  0.4583333333E+00  0.5000000000E+00  0.9996194200E+03  0.4997088223E+03 -0.6836675763E+01         1
       0       1  0.0000000000E+00        63    1        63     16483  0.2083333333E+00  0.4583333333E+00  0.5000000000E+00  0.9997027533E+03  0.4997088223E+03 -0.6836675763E+01         1
       0       1  0.0000000000E+00        64    1        64     16483  0.2916666667E+00  0.4583333333E+00  0.5000000000E+00  0.9997860867E+03  0.4997088223E+03 -0.6836675763E+01         1
       0       1  0.0000000000E+00        65    1        65     16483  0.3750000000E+00  0.4583333333E+00  0.5000000000E+00  0.9998694200E+03  0.4997088223E+03 -0.6836675763E+01         1
       0       1  0.0000000000E+00        66    1        66     16483  0.4583333333E+00  0.4583333333E+00  0.5000000000E+00  0.9999527533E+03  0.4997088223E+03 -0.6836675763E+01         1
       0       1  0.0000000000E+00        67    1        67     16483  0.5416666667E+00  0.4583333333E+00  0.5000000000E+00  0.1000036087E+04  0.4997088223E+03 -0.6836675763E+01         1
       0       1  0.0000000000E+00        68    1        68     16483  0.6250000000E+00  0.4583333333E+00  0.5000000000E+00  0.1000119420E+04  0.4997088223E+03 -0.6836675763E+01         1
       0       1  0.0000000000E+00        69    1        69     16483  0.7083333333E+00  0.4583333333E+00  0.5000000000E+00  0.1000202753E+04  0.4997088223E+03 -0.6836675763E+01         1
       0       1  0.0000000000E+00        70    1        70     16483  0.7916666667E+00  0.4583333333E+00  0.5000000000E+00  0.1000286087E+04  0.4997088223E+03 -0.6836675763E+01         1
       0       1  0.0000000000E+00        71    1        71     16483  0.8750000000E+00  0.4583333333E+00  0.5000000000E+00  0.1000369420E+04  0.4997088223E+03 -0.6836675763E+01         1
       0       1  0.0000000000E+00        72    1        72     16483  0.9583333333E+00  0.4583333333E+00  0.5000000000E+00  0.1000452753E+04  0.4997088223E+03 -0.6836675763E+01         1
       0       1  0.0000000000E+00        73    1        73     16483  0.4166666667E-01  0.5416666667E+00  0.5000000000E+00  0.9995360867E+03  0.4997921557E+03 -0.6836675763E+01         1
       0       1  0.0000000000E+00        74    1        74     16483  0.1250000000E+00  0.5416666667E+00  0.5000000000E+00  0.9996194200E+03  0.4997921557E+03 -0.6836675763E+01         1
       0       1  0.0000000000E+00        75    1        75     16483  0.2083333333E+00  0.5416666667E+00  0.5000000000E+00  0.9997027533E+03  0.4997921557E+03 -0.6836675763E+01         1
       0       1  0.0000000000E+00        76    1        76     16483  0.2916666667E+00  0.5416666667E+00  0.5000000000E+00  0.9997860867E+03  0.4997921557E+03 -0.6836675763E+01         1
       0       1  0.0000000000E+00        77    1        77     16483  0.3750000000E+00  0.5416666667E+00  0.5000000000E+00  0.9998694200E+03  0.4997921557E+03 -0.6836675763E+01         1
       0       1  0.0000000000E+00        78    1        78     16483  0.4583333333E+00  0.5416666667E+00  0.5000000000E+00  0.9999527533E+03  0.4997921557E+03 -0.6836675763E+01         1
       0       1  0.0000000000E+00        79    1        79     16483  0.5416666667E+00  0.5416666667E+00  0.5000000000E+00  0.1000036087E+04  0.4997921557E+03 -0.6836675763E+01         1
       0       1  0.0000000000E+00        80    1        80     16483  0.6250000000E+00  0.5416666667E+00  0.5000000000E+00  0.1000119420E+04  0.4997921557E+03 -0.6836675763E+01         1
       0       1  0.0000000000E+00        81    1        81     16483  0.7083333333E+00  0.5416666667E+00  0.5000000000E+00  0.1000202753E+04  0.4997921557E+03 -0.6836675763E+01         1
       0       1  0.0000000000E+00        82    1        82     16483  0.7916666667E+00  0.5416666667E+00  0.5000000000E+00  0.1000286087E+04  0.4997921557E+03 -0.6836675763E+01         1
       0       1  0.0000000000E+00        83    1        83     16483  0.8750000000E+00  0.5416666667E+00  0.5000000000E+00  0.1000369420E+04  0.4997921557E+03 -0.6836675763E+01         1
       0       1  0.0000000000E+00        84    1        84     16483  0.9583333333E+00  0.5416666667E+00  0.5000000000E+00  0.1000452753E+04  0.4997921557E+03 -0.6836675763E+01         1
       0       1  0.0000000000E+00        85    1        85     16483  0.4166666667E-01  0.6250000000E+00  0.5000000000E+00  0.9995360867E+03  0.4998754890E+03 -0.6836675763E+01         1
       0       1  0.0000000000E+00        86    1        86     16483  0.1250000000E+00  0.6250000000E+00  0.5000000000E+00  0.9996194200E+03  0.4998754890E+03 -0.6836675763E+01         1
       0       1  0.0000000000E+00        87    1        87     16483  0.2083333333E+00  0.6250000000E+00  0.5000000000E+00  0.9997027533E+03  0.4998754890E+03 -0.6836675763E+01         1
       0       1  0.0000000000E+00        88    1        88     16483  0.2916666667E+00  0.6250000000E+00  0.5000000000E+00  0.9997860867E+03  0.4998754890E+03 -0.6836675763E+01         1
       0       1  0.0000000000E+00        89    1        89     16483  0.3750000000E+00  0.6250000000E+00  0.5000000000E+00  0.9998694200E+03  0.4998754890E+03 -0.6836675763E+01         1
       0       1  0.0000000000E+00        90    1        90     16483  0.4583333333E+00  0.6250000000E+00  0.5000000000E+00  0.9999527533E+03  0.4998754890E+03 -0.6836675763E+01         1
       0       1  0.0000000000E+00        91    1        91     16483  0.5416666667E+00  0.6250000000E+00  0.5000000000E+00  0.1000036087E+04  0.4998754890E+03 -0.6836675763E+01         1
       0       1  0.0000000000E+00        92    1        92     16483  0.6250000000E+00  0.6250000000E+00  0.5000000000E+00  0.1000119420E+04  0.4998754890E+03 -0.6836675763E+01         1
       0       1  0.0000000000E+00        93    1        93     16483  0.7083333333E+00  0.6250000000E+00  0.5000000000E+00  0.1000202753E+04  0.4998754890E+03 -0.6836675763E+01         1
       0       1  0.0000000000E+00        94    1        94     16483  0.7916666667E+00  0.6250000000E+00  0.5000000000E+00  0.1000286087E+04  0.4998754890E+03 -0.6836675763E+01         1
       0       1  0.0000000000E+00        95    1        95     16483  0.8750000000E+00  0.6250000000E+00  0.5000000000E+00  0.1000369420E+04  0.4998754890E+03 -0.6836675763E+01         1
       0       1  0.0000000000E+00        96    1        96     16483  0.9583333333E+00  0.6250000000E+00  0.5000000000E+00  0.1000452753E+04  0.4998754890E+03 -0.6836675763E+01         1
       0       1  0.0000000000E+00        97    1        97     16483  0.4166666667E-01  0.7083333333E+00  0.5000000000E+00  0.9995360867E+03  0.4999588223E+03 -0.6836675763E+01         1
       0       1  0.0000000000E+00        98    1        98     16483  0.1250000000E+00  0.7083333333E+00  0.5000000000E+00  0.9996194200E+03  0.4999588223E+03 -0.6836675763E+01         1
       0       1  0.0000000000E+00        99    1        99     16483  0.2083333333E+00  0.7083333333E+00  0.5000000000E+00  0.9997027533E+03  0.4999588223E+03 -0.6836675763E+01         1
       0       1  0.0000000000E+00       100    1       100     16483  0.2916666667E+00  0.7083333333E+00  0.5000000000E+00  0.9997860867E+03  0.4999588223E+03 -0.6836675763E+01         1
       0       1  0.0000000000E+00       101    1       101     16483  0.3750000000E+00  0.7083333333E+00  0.5000000000E+00  0.9998694200E+03  0.4999588223E+03 -0.6836675763E+01         1
       0       1  0.0000000000E+00       102    1       102     16483  0.4583333333E+00  0.7083333333E+00  0.5000000000E+00  0.9999527533E+03  0.4999588223E+03 -0.6836675763E+01         1
       0       1  0.0000000000E+00       103    1       103     16483  0.5416666667E+00  0.7083333333E+00  0.5000000000E+00  0.1000036087E+04  0.4999588223E+03 -0.6836675763E+01         1
       0       1  0.0000000000E+00       104    1       104     16483  0.6250000000E+00  0.7083333333E+00  0.5000000000E+00  0.1000119420E+04  0.4999588223E+03 -0.6836675763E+01         1
       0       1  0.0000000000E+00       105    1       105     16483  0.7083333333E+00  0.7083333333E+00  0.5000000000E+00  0.1000202753E+04  0.4999588223E+03 -0.6836675763E+01         1
       0       1  0.0000000000E+00       106    1       106     16483  0.7916666667E+00  0.7083333333E+00  0.5000000000E+00  0.1000286087E+04  0.4999588223E+03 -0.6836675763E+01         1
       0       1  0.0000000000E+00       107    1       107     16483  0.8750000000E+00  0.7083333333E+00  0.5000000000E+00  0.1000369420E+04  0.4999588223E+03 -0.6836675763E+01         1
       0       1  0.0000000000E+00       108    1       108     16483  0.9583333333E+00  0.7083333333E+00  0.5000000000E+00  0.1000452753E+04  0.4999588223E+03 -0.6836675763E+01         1
       0       1  0.0000000000E+00       109    1       109     16483  0.4166666667E-01  0.7916666667E+00  0.5000000000E+00  0.9995360867E+03  0.5000421557E+03 -0.6836675763E+01         1
       0       1  0.0000000000E+00       110    1       110     16483  0.1250000000E+00  0.7916666667E+00  0.5000000000E+00  0.9996194200E+03  0.5000421557E+03 -0.6836675763E+01         1
       0       1  0.0000000000E+00       111    1       111     16483  0.2083333333E+00  0.7916666667E+00  0.5000000000E+00  0.9997027533E+03  0.5000421557E+03 -0.6836675763E+01         1
       0       1  0.0000000000E+00       112    1       112     16483  0.2916666667E+00  0.7916666667E+00  0.5000000000E+00  0.9997860867E+03  0.5000421557E+03 -0.6836675763E+01         1
       0       1  0.0000000000E+00       113    1       113     16483  0.3750000000E+00  0.7916666667E+00  0.5000000000E+00  0.9998694200E+03  0.5000421557E+03 -0.6836675763E+01         1
       0       1  0.0000000000E+00       114    1       114     16483  0.4583333333E+00  0.7916666667E+00  0.5000000000E+00  0.9999527533E+03  0.5000421557E+03 -0.6836675763E+01         1
       0       1  0.0000000000E+00       115    1       115     16483  0.5416666667E+00  0.7916666667E+00  0.5000000000E+00  0.1000036087E+04  0.5000421557E+03 -0.6836675763E+01         1
       0       1  0.0000000000E+00       116    1       116     16483  0.6250000000E+00  0.7916666667E+00  0.5000000000E+00  0.1000119420E+04  0.5000421557E+03 -0.6836675763E+01         1
       0       1  0.0000000000E+00       117    1       117     16483  0.7083333333E+00  0.7916666667E+00  0.5000000000E+00  0.1000202753E+04  0.5000421557E+03 -0.6836675763E+01         1
       0       1  0.0000000000E+00       118    1       118     16483  0.7916666667E+00  0.7916666667E+00  0.5000000000E+00  0.1000286087E+04  0.5000421557E+03 -0.6836675763E+01         1
       0       1  0.0000000000E+00       119    1       119     16483  0.8750000000E+00  0.7916666667E+00  0.5000000000E+00  0.1000369420E+04  0.5000421557E+03 -0.6836675763E+01         1
       0       1  0.0000000000E+00       120    1       120     16483  0.9583333333E+00  0.7916666667E+00  0.5000000000E+00  0.1000452753E+04  0.5000421557E+03 -0.6836675763E+01         1
       0       1  0.0000000000E+00       121    1       121     16483  0.4166666667E-01  0.8750000000E+00  0.5000000000E+00  0.9995360867E+03  0.5001254890E+03 -0.6836675763E+01         1
       0       1  0.0000000000E+00       122    1       122     16483  0.1250000000E+00  0.8750000000E+00  0.5000000000E+00  0.9996194200E+03  0.5001254890E+03 -0.6836675763E+01         1
       0       1  0.0000000000E+00       123    1       123     16483  0.2083333333E+00  0.8750000000E+00  0.5000000000E+00  0.9997027533E+03  0.5001254890E+03 -0.6836675763E+01         1
       0       1  0.0000000000E+00       124    1       124     16483  0.2916666667E+00  0.8750000000E+00  0.5000000000E+00  0.9997860867E+03  0.5001254890E+03 -0.6836675763E+01         1
       0       1  0.0000000000E+00       125    1       125     16483  0.3750000000E+00  0.8750000000E+00  0.5000000000E+00  0.9998694200E+03  0.5001254890E+03 -0.6836675763E+01         1
       0       1  0.0000000000E+00       126    1       126     16483  0.4583333333E+00  0.8750000000E+00  0.5000000000E+00  0.9999527533E+03  0.5001254890E+03 -0.6836675763E+01         1
       0       1  0.0000000000E+00       127    1       127     16483  0.5416666667E+00  0.8750000000E+00  0.5000000000E+00  0.1000036087E+04  0.5001254890E+03 -0.6836675763E+01         1
       0       1  0.0000000000E+00       128    1       128     16483  0.6250000000E+00  0.8750000000E+00  0.5000000000E+00  0.1000119420E+04  0.5001254890E+03 -0.6836675763E+01         1
       0       1  0.0000000000E+00       129    1       129     16483  0.7083333333E+00  0.8750000000E+00  0.5000000000E+00  0.1000202753E+04  0.5001254890E+03 -0.6836675763E+01         1
       0       1  0.0000000000E+00       130    1       130     16483  0.7916666667E+00  0.8750000000E+00  0.5000000000E+00  0.1000286087E+04  0.5001254890E+03 -0.6836675763E+01         1
       0       1  0.0000000000E+00       131    1       131     16483  0.8750000000E+00  0.8750000000E+00  0.5000000000E+00  0.1000369420E+04  0.5001254890E+03 -0.6836675763E+01         1
       0       1  0.0000000000E+00       132    1       132     16483  0.9583333333E+00  0.8750000000E+00  0.5000000000E+00  0.1000452753E+04  0.5001254890E+03 -0.6836675763E+01         1
       0       1  0.0000000000E+00       133    1       133     16483  0.4166666667E-01  0.9583333333E+00  0.5000000000E+00  0.9995360867E+03  0.5002088223E+03 -0.6836675763E+01         1
       0       1  0.0000000000E+00       134    1       134     16483  0.1250000000E+00  0.9583333333E+00  0.5000000000E+00  0.9996194200E+03  0.5002088223E+03 -0.6836675763E+01         1
       0       1  0.0000000000E+00       135    1       135     16483  0.2083333333E+00  0.9583333333E+00  0.5000000000E+00  0.9997027533E+03  0.5002088223E+03 -0.6836675763E+01         1
       0       1  0.0000000000E+00       136    1       136     16483  0.2916666667E+00  0.9583333333E+00  0.5000000000E+00  0.9997860867E+03  0.5002088223E+03 -0.6836675763E+01         1
       0       1  0.0000000000E+00       137    1       137     16483  0.3750000000E+00  0.9583333333E+00  0.5000000000E+00  0.9998694200E+03  0.5002088223E+03 -0.6836675763E+01         1
       0       1  0.0000000000E+00       138    1       138     16483  0.4583333333E+00  0.9583333333E+00  0.5000000000E+00  0.9999527533E+03  0.5002088223E+03 -0.6836675763E+01         1
       0       1  0.0000000000E+00       139    1       139     16483  0.5416666667E+00  0.9583333333E+00  0.5000000000E+00  0.1000036087E+04  0.5002088223E+03 -0.6836675763E+01         1
       0       1  0.0000000000E+00       140    1       140     16483  0.6250000000E+00  0.9583333333E+00  0.5000000000E+00  0.1000119420E+04  0.5002088223E+03 -0.6836675763E+01         1
       0       1  0.0000000000E+00       141    1       141     16483  0.7083333333E+00  0.9583333333E+00  0.5000000000E+00  0.1000202753E+04  0.5002088223E+03 -0.6836675763E+01         1
       0       1  0.0000000000E+00       142    1       142     16483  0.7916666667E+00  0.9583333333E+00  0.5000000000E+00  0.1000286087E+04  0.5002088223E+03 -0.6836675763E+01         1
       0       1  0.0000000000E+00       143    1       143     16483  0.8750000000E+00  0.9583333333E+00  0.5000000000E+00  0.1000369420E+04  0.5002088223E+03 -0.6836675763E+01         1
       0       1  0.0000000000E+00       144    1       144     16483  0.9583333333E+00  0.9583333333E+00  0.5000000000E+00  0.1000452753E+04  0.5002088223E+03 -0.6836675763E+01         1
       1       1  0.3000000000E+00         1    1         1     17927  0.6259324348E+00  0.6675360345E+00  0.5000000000E+00  0.9951203524E+03  0.4929180250E+03 -0.6658699036E+01         1
       1       1  0.3000000000E+00         2    1         2     17928  0.5872473187E+00  0.3186824582E-01  0.5000000000E+00  0.9960816673E+03  0.4922823572E+03 -0.6661850810E+01         1
       1       1  0.3000000000E+00         3    1         3     18136  0.6679473331E+00  0.5863436670E+00  0.5000000000E+00  0.9971623673E+03  0.4918368327E+03 -0.6659168601E+01         1
       1       1  0.3000000000E+00         4    1         4     18137  0.8230647427E+00  0.3135404603E+00  0.5000000000E+00  0.9983174847E+03  0.4915640295E+03 -0.6661397457E+01         1
       1       1  0.3000000000E+00         5    1         5     18139  0.7084620227E-01  0.3019091112E+00  0.5000000000E+00  0.9995652662E+03  0.4915523981E+03 -0.6664511204E+01         1
       1       1  0.3000000000E+00         6    1         6     18347  0.4829039213E-01  0.9227647182E-01  0.5000000000E+00  0.1000542710E+04  0.4903427655E+03 -0.6660535455E+01         1
       1       1  0.3000000000E+00         7    1         7     18348  0.2399968130E+00  0.2190047344E+00  0.5000000000E+00  0.1001734417E+04  0.4904694937E+03 -0.6660715461E+01         1
       1       1  0.3000000000E+00         8    1         8     18349  0.4047112008E+00  0.5558783867E+00  0.5000000000E+00  0.1002899131E+04  0.4908063674E+03 -0.6660242319E+01         1
       1       1  0.3000000000E+00         9    1         9     18143  0.4989541051E+00  0.2998619676E-01  0.5000000000E+00  0.1003993374E+04  0.4912804752E+03 -0.6662995815E+01         1
       1       1  0.3000000000E+00        10    1        10     18144  0.4813315755E+00  0.6405099853E+00  0.5000000000E+00  0.1004975752E+04  0.4918909990E+03 -0.6661370873E+01         1
       1       1  0.3000000000E+00        11    1        11     17938  0.3657771040E+00  0.3826250620E+00  0.5000000000E+00  0.1005860197E+04  0.4926331141E+03 -0.6662883043E+01         1
       1       1  0.3000000000E+00        12    1        12     17732  0.1530300223E+00  0.2430099224E+00  0.5000000000E+00  0.1006647450E+04  0.4934934989E+03 -0.6663731337E+01         1
       1       1  0.3000000000E+00        13    1        13     17719  0.8387963711E+00  0.3596814215E+00  0.5000000000E+00  0.9943332164E+03  0.4936101704E+03 -0.6660075545E+01         1
       1       1  0.3000000000E+00        14    1        14     17927  0.7949808557E+00  0.5456297348E+00  0.5000000000E+00  0.9952894009E+03  0.4927961187E+03 -0.6658699036E+01         1