# LPF package for  MODFLOW-2005, generated by Flopy.
        53    -1E+30         0  
         1
         0
   0.000000E+00
         0
         0
INTERNAL               1 (207E15.6) -1 #hk layer 1                    
   2.604569E-02   8.679340E-02   2.221372E-01   4.626871E-01   8.686471E-02   1.645034E-01   7.803738E-02   5.222510E-02   4.593773E-02   5.230751E-02   8.498544E-02   1.457919E-01   1.079987E-01   9.398551E-02   7.209544E-02   5.038928E-02   5.480078E-02   3.024117E-02   3.693973E-02   4.006780E-02   3.054519E-02   1.648954E-02   5.361329E-03   2.154865E-02   2.705629E-02   3.977101E-02   6.158924E-02   9.914410E-02   3.865602E-01   3.342923E-01   3.157681E-01   4.878120E-02   5.522073E-02   5.525419E-02   2.740071E-02   2.200724E-02   2.251712E-02   4.567225E-02   3.143268E-02   6.061592E-02   1.999026E-02   3.821522E-02   8.091717E-02   8.710287E-02   1.162017E-01   2.042905E-01   4.094345E-01   1.632419E-01   9.287086E-02   9.170891E-02   1.214683E-01   8.980355E-02   5.310321E-02   5.898716E-02   1.331333E-01   5.165897E-02   3.231783E-02   8.331843E-02   2.285691E-02   2.909024E-02   3.449290E-02   7.035785E-02   5.697778E-02   1.601262E-01   1.010583E-01   1.540600E-01   6.736539E-02   6.812022E-02   8.102366E-02   3.382966E-02   1.485629E-01   1.998605E-01   1.482858E-01   2.245771E-01   1.367617E-01   7.979258E-02   1.019318E-01   3.941694E-01   2.350370E-01   4.759514E-01   3.499881E-01   1.308677E-01   1.027828E-01   7.542471E-02   3.903815E-02   9.880695E-02   2.663257E-01   3.281066E-01   1.376125E-01   1.224234E-01   1.224234E-01   3.099990E-01   2.440514E-01   2.440514E-01   6.018779E-02   1.931493E-01   1.931493E-01   1.294334E-01   1.294334E-01   1.294334E-01   2.494107E-01   2.494107E-01   2.494107E-01   1.391671E-01   1.391671E-01   1.391671E-01   1.391671E-01   1.391671E-01   1.362894E-01   1.362894E-01   1.362894E-01   1.362894E-01   1.362894E-01   2.318426E-01   2.318426E-01   2.318426E-01   2.318426E-01   2.318426E-01   2.318426E-01   2.318426E-01   6.429868E-02   6.429868E-02   6.429868E-02   6.429868E-02   6.429868E-02   6.429868E-02   6.429868E-02   6.429868E-02   6.429868E-02   6.429868E-02   6.829280E-02   6.829280E-02   6.829280E-02   6.829280E-02   6.829280E-02   6.829280E-02   6.829280E-02   6.829280E-02   6.829280E-02   5.177531E-02   5.177531E-02   5.177531E-02   5.177531E-02   5.177531E-02   5.177531E-02   5.177531E-02   2.905264E-02   2.905264E-02   2.905264E-02   2.905264E-02   2.905264E-02   1.564579E-02   1.564579E-02   1.564579E-02   1.564579E-02   2.762088E-02   2.762088E-02   2.762088E-02   2.302145E-02   2.302145E-02   1.108614E-01   1.108614E-01   1.239537E-01   1.239537E-01   1.166361E-01   2.928038E-01   2.150966E-01   2.150966E-01   1.194878E-01   1.416104E-01   1.689040E-01   2.667168E-01   2.210831E-01   8.365843E-01   4.376084E-01   9.578190E-02   8.721352E-02   3.018695E-02   3.282835E-02   1.482344E-02   2.825280E-02   2.435991E-02   4.070480E-02   2.204053E-01   3.825583E-01   3.293956E-01   1.864097E-01   3.399388E-01   1.463734E-01   3.118626E-01   7.687777E-02   1.952797E-01   1.041649E-01   2.199977E-02   2.088953E-02   8.634641E-02   7.560306E-02   2.771746E-01   1.766698E-01   1.025010E-01   9.577441E-02   7.549338E-02   5.050334E-02   3.306378E-01   3.722870E-01   3.610031E-01   1.602396E-01
   2.562925E-02   1.729983E-01   2.581351E-01   1.865965E-01   9.713537E-02   1.845080E-01   8.746094E-02   5.327702E-02   5.116845E-02   1.180801E-01   1.095089E-01   1.836830E-01   7.206902E-02   1.101045E-01   1.205926E-01   5.129316E-02   7.679100E-02   4.489068E-02   3.058889E-02   1.283580E-02   2.732790E-02   9.810035E-03   7.985915E-03   1.975033E-02   3.097663E-02   5.419026E-02   4.627276E-02   7.907954E-02   5.321813E-01   3.147400E-01   3.337392E-01   8.002681E-02   4.200756E-02   8.140112E-02   3.327511E-02   4.271851E-02   2.529073E-02   3.882710E-02   4.201801E-02   5.290124E-02   4.725573E-02   5.595140E-02   3.557473E-02   6.042884E-02   7.909986E-02   1.242818E-01   4.283198E-01   2.047823E-01   9.119556E-02   8.388184E-02   8.931219E-02   1.199646E-01   6.236706E-02   1.247246E-01   9.427522E-02   6.089842E-02   6.093321E-02   6.225164E-02   4.323110E-02   6.137257E-02   4.752753E-02   4.839638E-02   4.539606E-02   8.014322E-02   1.070493E-01   9.574076E-02   3.792772E-02   1.492892E-01   6.290695E-02   4.710040E-02   1.416742E-01   2.392071E-01   9.357106E-02   9.684212E-02   9.087292E-02   8.663796E-02   1.467454E-01   3.903075E-01   2.718613E-01   3.245798E-01   2.367294E-01   9.011275E-02   2.628105E-01   7.347848E-02   6.628475E-02   7.173538E-02   2.087612E-01   2.676090E-01   8.513591E-02   1.315759E-01   1.315759E-01   2.702073E-01   2.384605E-01   2.384605E-01   1.340219E-01   3.178984E-01   3.178984E-01   2.368567E-01   2.368567E-01   2.368567E-01   2.973562E-01   2.973562E-01   2.973562E-01   1.250112E-01   1.250112E-01   1.250112E-01   1.250112E-01   1.250112E-01   8.472013E-02   8.472013E-02   8.472013E-02   8.472013E-02   8.472013E-02   1.635233E-01   1.635233E-01   1.635233E-01   1.635233E-01   1.635233E-01   1.635233E-01   1.635233E-01   5.132723E-02   5.132723E-02   5.132723E-02   5.132723E-02   5.132723E-02   5.132723E-02   5.132723E-02   5.132723E-02   5.132723E-02   5.132723E-02   5.768814E-02   5.768814E-02   5.768814E-02   5.768814E-02   5.768814E-02   5.768814E-02   5.768814E-02   5.768814E-02   5.768814E-02   6.173657E-02   6.173657E-02   6.173657E-02   6.173657E-02   6.173657E-02   6.173657E-02   6.173657E-02   3.300130E-02   3.300130E-02   3.300130E-02   3.300130E-02   3.300130E-02   1.455737E-02   1.455737E-02   1.455737E-02   1.455737E-02   3.060355E-02   3.060355E-02   3.060355E-02   3.593232E-02   3.593232E-02   4.007204E-02   4.007204E-02   9.931788E-02   9.931788E-02   1.628830E-01   2.527052E-01   3.236335E-01   3.236335E-01   7.425682E-02   1.247312E-01   1.791064E-01   2.543550E-01   3.352940E-01   6.119454E-01   3.720341E-01   1.433813E-01   2.993055E-02   2.411229E-02   4.323798E-02   1.097631E-02   1.720600E-02   2.829347E-02   7.371823E-02   1.668542E-01   2.125198E-01   3.356424E-01   2.155971E-01   3.287090E-01   1.265473E-01   1.237842E-01   1.252979E-01   1.053519E-01   9.624056E-02   2.945191E-02   2.329743E-02   2.804422E-02   1.200772E-01   1.312281E-01   1.230276E-01   2.575136E-01   8.528149E-02   1.016661E-01   3.903536E-02   1.634764E-01   9.740187E-02   2.045016E-01   1.090706E-01
   3.625811E-02   2.091785E-01   1.553756E-01   1.262973E-01   8.868539E-02   7.624884E-02   8.318236E-02   6.507385E-02   1.155191E-01   2.103532E-01   7.179800E-02   1.252398E-01   8.563475E-02   9.920327E-02   4.696238E-02   4.873496E-02   9.017720E-02   2.080818E-02   1.343825E-02   1.251173E-02   3.913782E-02   1.405624E-02   1.395072E-02   2.097884E-02   8.321717E-02   8.089183E-02   1.168736E-01   1.101927E-01   5.300975E-01   2.215429E-01   2.876555E-01   8.508115E-02   4.884960E-02   6.101625E-02   8.400098E-02   5.351165E-02   3.528919E-02   4.070594E-02   3.331785E-02   2.953216E-02   1.516433E-02   2.460841E-02   7.985316E-02   1.292071E-01   9.769529E-02   1.069128E-01   2.158395E-01   1.308634E-01   5.638208E-02   6.753862E-02   2.555878E-01   1.910376E-01   8.789176E-02   2.520379E-01   1.894931E-01   1.043503E-01   5.691735E-02   6.141476E-02   6.590991E-02   1.293848E-01   2.789006E-02   5.041320E-02   1.355912E-01   1.677370E-01   1.078644E-01   5.602883E-02   2.515978E-02   6.278231E-02   5.653802E-02   8.178785E-02   2.041223E-01   2.233812E-01   4.112829E-02   5.624360E-02   3.628922E-02   3.806782E-02   1.683438E-01   1.240678E-01   4.107289E-01   1.816629E-01   3.635759E-01   1.929421E-01   1.059789E-01   9.287179E-02   1.215429E-01   1.571511E-01   3.537065E-01   2.445306E-01   1.159122E-01   8.930353E-02   8.930353E-02   2.152354E-01   1.713896E-01   1.713896E-01   1.752280E-01   6.570514E-01   6.570514E-01   3.153569E-01   3.153569E-01   3.153569E-01   3.041524E-01   3.041524E-01   3.041524E-01   1.628385E-01   1.628385E-01   1.628385E-01   1.628385E-01   1.628385E-01   6.010340E-02   6.010340E-02   6.010340E-02   6.010340E-02   6.010340E-02   3.608979E-01   3.608979E-01   3.608979E-01   3.608979E-01   3.608979E-01   3.608979E-01   3.608979E-01   5.619737E-02   5.619737E-02   5.619737E-02   5.619737E-02   5.619737E-02   5.619737E-02   5.619737E-02   5.619737E-02   5.619737E-02   5.619737E-02   7.349039E-02   7.349039E-02   7.349039E-02   7.349039E-02   7.349039E-02   7.349039E-02   7.349039E-02   7.349039E-02   7.349039E-02   3.328994E-02   3.328994E-02   3.328994E-02   3.328994E-02   3.328994E-02   3.328994E-02   3.328994E-02   3.332430E-02   3.332430E-02   3.332430E-02   3.332430E-02   3.332430E-02   4.168373E-02   4.168373E-02   4.168373E-02   4.168373E-02   2.388070E-02   2.388070E-02   2.388070E-02   1.792188E-02   1.792188E-02   3.263224E-02   3.263224E-02   1.648392E-01   1.648392E-01   1.088188E-01   3.027655E-01   5.239659E-01   5.239659E-01   1.002521E-01   1.576802E-01   1.934069E-01   3.344702E-01   3.529089E-01   3.583251E-01   1.768907E-01   7.176084E-02   5.557036E-02   1.552768E-02   4.624081E-02   1.422065E-02   3.227811E-02   2.633673E-02   5.626700E-02   7.578105E-02   1.683768E-01   1.630480E-01   3.515413E-01   1.384171E-01   6.382762E-02   1.028604E-01   1.401542E-01   1.190553E-01   1.147425E-01   2.389036E-02   2.777532E-02   2.197907E-02   4.531500E-02   5.524739E-02   2.355156E-01   2.327111E-01   6.372928E-02   6.934099E-02   5.839932E-02   1.314313E-01   1.650880E-01   1.934091E-01   1.175442E-01
   6.011753E-02   3.396124E-01   3.950231E-01   1.747312E-01   8.333458E-02   7.816248E-02   4.851943E-02   8.525075E-02   1.193236E-01   1.852476E-01   8.700689E-02   1.647694E-01   6.456514E-02   4.272910E-02   2.234862E-02   3.774414E-02   8.031526E-02   1.693913E-02   1.882069E-02   1.704904E-02   2.820273E-02   1.503236E-02   2.051614E-02   2.683942E-02   3.919083E-02   6.855854E-02   1.920808E-01   7.310796E-02   3.166879E-01   1.731454E-01   1.937814E-01   8.528501E-02   4.953339E-02   3.481308E-02   1.066477E-01   7.154018E-02   4.899764E-02   3.443626E-02   4.841392E-02   2.043531E-02   1.662846E-02   2.565077E-02   1.076354E-01   1.302188E-01   9.306804E-02   1.314752E-01   1.192205E-01   2.230459E-01   1.314352E-01   1.382244E-01   2.165688E-01   2.957688E-01   1.052726E-01   3.506880E-01   9.970706E-02   7.665094E-02   1.136724E-01   1.204213E-01   3.970660E-02   9.211418E-02   3.852533E-02   3.663012E-02   8.735184E-02   9.525006E-02   4.934654E-02   1.290600E-01   6.164670E-02   9.238315E-02   5.362542E-02   1.061124E-01   1.662360E-01   3.306284E-01   8.452497E-02   5.393823E-02   4.086565E-02   6.711517E-02   1.034026E-01   1.053897E-01   2.068079E-01   1.055357E-01   1.857289E-01   4.606905E-01   1.757469E-01   1.223503E-01   2.355346E-01   3.440191E-01   7.940613E-01   5.538034E-01   1.606690E-01   1.082707E-01   1.082707E-01   9.643164E-02   1.688996E-01   1.688996E-01   1.089518E-01   5.144485E-01   5.144485E-01   5.105481E-01   5.105481E-01   5.105481E-01   1.505547E-01   1.505547E-01   1.505547E-01   6.578920E-02   6.578920E-02   6.578920E-02   6.578920E-02   6.578920E-02   1.092461E-01   1.092461E-01   1.092461E-01   1.092461E-01   1.092461E-01   1.155942E-01   1.155942E-01   1.155942E-01   1.155942E-01   1.155942E-01   1.155942E-01   1.155942E-01   7.618258E-02   7.618258E-02   7.618258E-02   7.618258E-02   7.618258E-02   7.618258E-02   7.618258E-02   7.618258E-02   7.618258E-02   7.618258E-02   5.270144E-02   5.270144E-02   5.270144E-02   5.270144E-02   5.270144E-02   5.270144E-02   5.270144E-02   5.270144E-02   5.270144E-02   5.516581E-02   5.516581E-02   5.516581E-02   5.516581E-02   5.516581E-02   5.516581E-02   5.516581E-02   4.924006E-02   4.924006E-02   4.924006E-02   4.924006E-02   4.924006E-02   4.699417E-02   4.699417E-02   4.699417E-02   4.699417E-02   1.733505E-02   1.733505E-02   1.733505E-02   1.315767E-02   1.315767E-02   6.914962E-02   6.914962E-02   2.222323E-01   2.222323E-01   1.624298E-01   2.349716E-01   2.489963E-01   2.489963E-01   7.708946E-02   1.504484E-01   1.576246E-01   1.434048E-01   3.798665E-01   3.494430E-01   2.031638E-01   8.898605E-02   6.546015E-02   1.430374E-02   2.703167E-02   1.825487E-02   4.528225E-02   3.718813E-02   2.828034E-02   1.899536E-01   1.553876E-01   1.595043E-01   2.226116E-01   1.112865E-01   6.806079E-02   4.607733E-02   1.731365E-01   1.532909E-01   6.935528E-02   2.229373E-02   4.584205E-02   4.620090E-02   1.164980E-01   7.584432E-02   1.468077E-01   1.503963E-01   4.624352E-02   5.361068E-02   7.492305E-02   6.011350E-02   7.974885E-02   1.760995E-01   1.029803E-01
   1.353985E-01   2.704804E-01   5.684316E-01   1.732699E-01   4.334201E-02   6.418349E-02   9.485236E-02   1.576826E-01   6.608719E-02   1.765408E-01   1.172065E-01   1.212521E-01   4.493775E-02   1.230318E-02   6.057849E-03   7.396176E-02   5.185853E-02   2.192187E-02   3.780727E-02   2.358544E-02   3.617332E-02   3.388921E-02   2.525551E-02   5.625632E-02   4.869013E-02   9.611882E-02   1.301686E-01   7.266918E-02   1.608146E-01   1.341423E-01   1.700341E-01   7.820906E-02   6.124296E-02   5.476621E-02   2.790103E-01   2.027593E-01   1.879146E-01   6.142375E-02   9.486821E-02   5.945200E-02   4.371413E-02   4.491701E-02   6.131947E-02   4.159692E-02   7.621341E-02   8.314775E-02   1.005285E-01   4.173302E-01   1.371165E-01   6.582400E-02   1.710456E-01   2.451083E-01   1.242195E-01   2.385002E-01   1.778758E-01   1.077989E-01   1.939055E-01   1.530568E-01   8.799125E-02   7.640775E-02   3.588118E-02   2.995292E-02   5.568049E-02   8.005023E-02   1.370805E-01   1.152810E-01   6.481723E-02   6.065359E-02   4.572213E-02   1.495230E-01   2.033363E-01   3.520827E-01   9.597877E-02   6.220385E-02   3.104061E-02   9.665571E-02   9.646355E-02   1.607619E-01   2.391574E-01   1.452483E-01   4.011154E-01   7.966524E-01   2.239634E-01   4.299589E-01   3.702129E-01   1.070002E+00   6.408975E-01   4.606511E-01   1.627540E-01   7.526950E-02   7.526950E-02   8.774615E-02   1.175710E-01   1.175710E-01   2.288252E-01   2.834606E-01   2.834606E-01   3.226038E-01   3.226038E-01   3.226038E-01   8.522972E-02   8.522972E-02   8.522972E-02   9.427445E-02   9.427445E-02   9.427445E-02   9.427445E-02   9.427445E-02   1.323838E-01   1.323838E-01   1.323838E-01   1.323838E-01   1.323838E-01   1.596985E-01   1.596985E-01   1.596985E-01   1.596985E-01   1.596985E-01   1.596985E-01   1.596985E-01   7.795054E-02   7.795054E-02   7.795054E-02   7.795054E-02   7.795054E-02   7.795054E-02   7.795054E-02   7.795054E-02   7.795054E-02   7.795054E-02   4.602377E-02   4.602377E-02   4.602377E-02   4.602377E-02   4.602377E-02   4.602377E-02   4.602377E-02   4.602377E-02   4.602377E-02   4.815789E-02   4.815789E-02   4.815789E-02   4.815789E-02   4.815789E-02   4.815789E-02   4.815789E-02   8.443343E-02   8.443343E-02   8.443343E-02   8.443343E-02   8.443343E-02   7.813980E-02   7.813980E-02   7.813980E-02   7.813980E-02   2.900449E-02   2.900449E-02   2.900449E-02   3.448033E-02   3.448033E-02   6.858811E-02   6.858811E-02   2.304547E-01   2.304547E-01   2.070048E-01   2.875985E-01   1.538792E-01   1.538792E-01   8.178510E-02   7.753557E-02   1.231330E-01   9.141868E-02   3.411137E-01   2.583921E-01   2.392267E-01   6.489696E-02   5.199348E-02   1.787532E-02   3.755254E-02   1.526087E-02   6.263424E-02   5.855047E-02   8.982711E-02   1.908208E-01   1.530098E-01   1.113861E-01   1.718566E-01   6.186643E-02   5.902007E-02   4.178361E-02   2.141977E-01   4.789215E-01   1.326206E-01   4.724453E-02   6.335164E-02   8.010798E-02   9.387586E-02   6.524449E-02   1.070979E-01   8.330648E-02   4.591436E-02   1.050500E-01   6.712253E-02   8.675442E-02   2.592668E-02   2.720077E-02   9.302321E-02
   2.674791E-01   3.916613E-01   4.071167E-01   1.199837E-01   8.559716E-02   1.920031E-01   5.800769E-02   1.031775E-01   4.145566E-02   1.807433E-01   8.505473E-02   8.514056E-02   3.897534E-02   8.846416E-03   5.194557E-03   5.775641E-02   5.831318E-02   2.677356E-02   4.965029E-02   3.637007E-02   2.722141E-02   4.272876E-02   1.987690E-02   4.545610E-02   3.312770E-02   1.246249E-01   9.023770E-02   1.022178E-01   3.152598E-01   2.081998E-01   1.783816E-01   5.120676E-02   7.450683E-02   6.778190E-02   2.116770E-01   2.323897E-01   1.435819E-01   1.585969E-01   2.090247E-01   1.236604E-01   1.003910E-01   4.614449E-02   6.299172E-02   6.566541E-02   3.161790E-02   3.421834E-02   1.748787E-01   3.955608E-01   1.926317E-01   7.741769E-02   2.086250E-01   2.183432E-01   1.175592E-01   1.176425E-01   1.515756E-01   1.134697E-01   1.699844E-01   4.073125E-01   1.252171E-01   1.063503E-01   3.017384E-02   2.560046E-02   2.117167E-02   6.145676E-02   2.450328E-01   9.234831E-02   1.313716E-01   3.737758E-02   1.589429E-02   9.165783E-02   1.319685E-01   4.827748E-01   1.511323E-01   6.804233E-02   4.140019E-02   7.105278E-02   8.347917E-02   1.570720E-01   2.244691E-01   2.934641E-01   2.340082E-01   9.747790E-01   3.418639E-01   4.239811E-01   4.920512E-01   5.364351E-01   1.107757E+00   3.816651E-01   2.383170E-01   1.265272E-01   1.265272E-01   7.824995E-02   1.393499E-01   1.393499E-01   2.280629E-01   2.790094E-01   2.790094E-01   3.813511E-01   3.813511E-01   3.813511E-01   6.720646E-02   6.720646E-02   6.720646E-02   7.887424E-02   7.887424E-02   7.887424E-02   7.887424E-02   7.887424E-02   1.690441E-01   1.690441E-01   1.690441E-01   1.690441E-01   1.690441E-01   9.412053E-02   9.412053E-02   9.412053E-02   9.412053E-02   9.412053E-02   9.412053E-02   9.412053E-02   8.932155E-02   8.932155E-02   8.932155E-02   8.932155E-02   8.932155E-02   8.932155E-02   8.932155E-02   8.932155E-02   8.932155E-02   8.932155E-02   2.544343E-02   2.544343E-02   2.544343E-02   2.544343E-02   2.544343E-02   2.544343E-02   2.544343E-02   2.544343E-02   2.544343E-02   1.920466E-02   1.920466E-02   1.920466E-02   1.920466E-02   1.920466E-02   1.920466E-02   1.920466E-02   4.281709E-02   4.281709E-02   4.281709E-02   4.281709E-02   4.281709E-02   9.416180E-02   9.416180E-02   9.416180E-02   9.416180E-02   3.782650E-02   3.782650E-02   3.782650E-02   4.966516E-02   4.966516E-02   8.479074E-02   8.479074E-02   1.544113E-01   1.544113E-01   2.473653E-01   2.410775E-01   1.842922E-01   1.842922E-01   9.431092E-02   7.316204E-02   5.977771E-02   1.100709E-01   1.675446E-01   3.070416E-01   1.657304E-01   7.495794E-02   3.707100E-02   2.070957E-02   6.063061E-02   1.908951E-02   3.757548E-02   6.444637E-02   7.074884E-02   1.872747E-01   1.069770E-01   1.655706E-01   2.304054E-01   1.006870E-01   5.507360E-02   6.019810E-02   3.073283E-01   2.768450E-01   1.054390E-01   2.616243E-02   5.413617E-02   5.674336E-02   6.524096E-02   7.717813E-02   4.618309E-02   4.914616E-02   1.768956E-02   8.771645E-02   6.047297E-02   6.672381E-02   2.072962E-02   5.151908E-02   5.984491E-02
   5.785686E-01   8.496946E-01   3.316739E-01   1.460812E-01   2.074400E-01   1.360644E-01   1.396775E-01   9.401397E-02   1.092663E-01   1.695074E-01   5.190863E-02   3.372549E-02   3.164006E-02   6.191876E-03   4.187381E-03   5.715364E-02   4.787704E-02   5.430922E-02   3.513408E-02   2.728092E-02   2.089614E-02   2.369435E-02   2.848304E-02   4.001156E-02   5.137851E-02   3.695676E-02   7.174901E-02   1.081873E-01   3.055167E-01   2.734828E-01   1.174494E-01   5.743269E-02   5.070424E-02   7.377868E-02   7.705563E-02   1.504077E-01   1.839546E-01   3.218603E-01   3.140158E-01   1.544444E-01   1.428341E-01   6.072293E-02   5.635015E-02   1.077683E-01   4.962194E-02   3.598469E-02   6.548851E-02   6.302933E-01   3.594657E-01   3.375751E-01   2.201843E-01   1.023825E-01   1.781252E-01   7.802065E-02   8.305347E-02   1.091702E-01   2.710027E-01   2.245585E-01   1.747333E-01   9.744971E-02   5.159669E-02   1.474847E-02   1.941439E-02   5.303812E-02   1.721832E-01   1.510771E-01   1.843809E-01   1.027808E-01   2.038849E-02   3.983479E-02   1.233978E-01   5.397810E-01   3.587058E-01   4.677217E-02   7.040699E-02   1.800970E-02   4.755331E-02   2.491033E-01   3.035491E-01   1.537590E-01   4.785054E-01   6.513634E-01   4.269138E-01   7.694468E-01   2.830172E-01   3.400080E-01   7.337999E-01   7.576717E-01   5.116341E-01   1.878916E-01   1.878916E-01   6.695467E-02   3.201296E-01   3.201296E-01   3.394969E-01   3.692589E-01   3.692589E-01   2.915218E-01   2.915218E-01   2.915218E-01   1.058561E-01   1.058561E-01   1.058561E-01   4.360984E-02   4.360984E-02   4.360984E-02   4.360984E-02   4.360984E-02   1.447057E-01   1.447057E-01   1.447057E-01   1.447057E-01   1.447057E-01   1.295024E-01   1.295024E-01   1.295024E-01   1.295024E-01   1.295024E-01   1.295024E-01   1.295024E-01   9.236407E-02   9.236407E-02   9.236407E-02   9.236407E-02   9.236407E-02   9.236407E-02   9.236407E-02   9.236407E-02   9.236407E-02   9.236407E-02   3.580245E-02   3.580245E-02   3.580245E-02   3.580245E-02   3.580245E-02   3.580245E-02   3.580245E-02   3.580245E-02   3.580245E-02   2.015536E-02   2.015536E-02   2.015536E-02   2.015536E-02   2.015536E-02   2.015536E-02   2.015536E-02   2.480982E-02   2.480982E-02   2.480982E-02   2.480982E-02   2.480982E-02   5.104351E-02   5.104351E-02   5.104351E-02   5.104351E-02   7.700250E-02   7.700250E-02   7.700250E-02   3.615782E-02   3.615782E-02   5.679572E-02   5.679572E-02   1.059508E-01   1.059508E-01   3.090633E-01   1.660954E-01   2.915686E-01   2.915686E-01   7.998098E-02   7.453125E-02   8.676351E-02   9.336707E-02   2.692603E-01   5.376707E-01   4.316983E-01   7.482195E-02   4.793126E-02   5.308641E-02   5.280723E-02   5.519293E-02   1.616254E-01   1.184934E-01   1.090155E-01   1.277997E-01   9.446412E-02   8.801872E-02   9.310637E-02   1.178238E-01   4.416054E-02   6.809237E-02   2.055342E-01   2.260187E-01   3.114321E-01   7.335941E-02   1.159081E-01   8.686933E-02   9.119079E-02   9.551404E-02   6.217504E-02   5.584585E-02   3.694284E-02   6.293555E-02   5.666033E-02   8.004836E-02   2.936411E-02   4.920956E-02   6.244605E-02
   8.663477E-01   6.443772E-01   5.235196E-01   4.051424E-01   1.743945E-01   1.373830E-01   1.214890E-01   7.662302E-02   1.075329E-01   1.398495E-01   5.239819E-02   2.664586E-02   1.537187E-02   8.441683E-03   4.932404E-03   3.359970E-02   6.248818E-02   3.865351E-02   3.166147E-02   1.487700E-02   1.082042E-02   2.307900E-02   2.470168E-02   4.245337E-02   5.601271E-02   2.589898E-02   1.307409E-01   9.744253E-02   1.229827E-01   4.253748E-01   1.116195E-01   4.387615E-02   4.671960E-02   3.109295E-02   1.238947E-01   4.825868E-01   1.519263E-01   2.603916E-01   4.196932E-01   1.307166E-01   1.645627E-01   9.776919E-02   5.234302E-02   3.972991E-02   3.621604E-02   2.875946E-02   1.188477E-01   2.566298E-01   1.774677E-01   2.478217E-01   1.710665E-01   1.486332E-01   1.070533E-01   6.841233E-02   2.224018E-01   1.996427E-01   4.960840E-01   4.685698E-01   1.665211E-01   5.317823E-02   6.089353E-02   2.034293E-02   3.128266E-02   5.157342E-02   9.633156E-02   9.751601E-02   7.089455E-02   4.740256E-02   2.310111E-02   7.608440E-02   1.412812E-01   2.733909E-01   2.957903E-01   7.001507E-02   2.040580E-02   3.201715E-02   1.218558E-01   1.571284E-01   2.988197E-01   2.275660E-01   4.843429E-01   1.107659E+00   7.390062E-01   2.205093E-01   1.809488E-01   2.460843E-01   1.851045E-01   1.002361E+00   3.072228E-01   1.444661E-01   1.444661E-01   1.296349E-01   1.083145E+00   1.083145E+00   4.164662E-01   3.643313E-01   3.643313E-01   1.786927E-01   1.786927E-01   1.786927E-01   1.136775E-01   1.136775E-01   1.136775E-01   9.505767E-02   9.505767E-02   9.505767E-02   9.505767E-02   9.505767E-02   9.036701E-02   9.036701E-02   9.036701E-02   9.036701E-02   9.036701E-02   1.449516E-01   1.449516E-01   1.449516E-01   1.449516E-01   1.449516E-01   1.449516E-01   1.449516E-01   8.291769E-02   8.291769E-02   8.291769E-02   8.291769E-02   8.291769E-02   8.291769E-02   8.291769E-02   8.291769E-02   8.291769E-02   8.291769E-02   4.894869E-02   4.894869E-02   4.894869E-02   4.894869E-02   4.894869E-02   4.894869E-02   4.894869E-02   4.894869E-02   4.894869E-02   2.015585E-02   2.015585E-02   2.015585E-02   2.015585E-02   2.015585E-02   2.015585E-02   2.015585E-02   1.527193E-02   1.527193E-02   1.527193E-02   1.527193E-02   1.527193E-02   3.534459E-02   3.534459E-02   3.534459E-02   3.534459E-02   2.220000E-02   2.220000E-02   2.220000E-02   3.870643E-02   3.870643E-02   6.564935E-02   6.564935E-02   1.135165E-01   1.135165E-01   1.318100E-01   2.222091E-01   1.175627E-01   1.175627E-01   6.630731E-02   8.343184E-02   1.332378E-01   7.455736E-02   9.931041E-02   7.627004E-01   3.146941E-01   1.083143E-01   4.690572E-02   6.770145E-02   2.967246E-01   5.758257E-02   1.411308E-01   1.523914E-01   1.603415E-01   9.197232E-02   1.185441E-01   6.937033E-02   6.959136E-02   6.035069E-02   5.109994E-02   1.740129E-01   1.558123E-01   1.388605E-01   2.322571E-01   9.431121E-02   5.673467E-02   1.173419E-01   1.084244E-01   6.605656E-02   3.676994E-02   5.357216E-02   2.301245E-02   4.301400E-02   5.025516E-02   3.610621E-02   2.723090E-02   5.701501E-02   4.973433E-02
   9.046137E-01   5.415007E-01   1.126414E+00   2.359279E-01   7.953420E-02   8.935746E-02   8.294065E-02   1.075749E-01   1.090823E-01   4.078229E-02   2.924223E-02   1.801975E-02   7.999165E-03   1.094690E-02   4.799499E-03   3.310050E-02   5.235032E-02   4.559067E-02   2.649905E-02   1.372250E-02   1.512734E-02   1.335825E-02   5.228866E-02   4.557068E-02   4.831110E-02   7.833265E-02   2.446826E-01   1.340299E-01   3.707548E-01   2.347437E-01   1.342592E-01   1.915794E-01   6.566414E-02   4.538414E-02   1.250922E-01   1.531364E-01   2.443556E-01   2.565062E-01   4.820607E-01   1.640773E-01   2.610363E-01   9.026418E-02   3.290533E-02   6.821913E-02   4.593772E-02   6.799404E-02   1.810701E-01   2.131820E-01   2.921899E-01   1.219750E-01   1.473227E-01   2.166615E-01   1.264658E-01   1.001203E-01   8.261783E-02   3.299024E-01   3.416067E-01   1.802856E-01   1.679491E-01   4.708901E-02   8.094383E-02   5.955525E-02   9.929283E-02   6.691652E-02   7.357986E-02   4.231803E-02   3.088025E-02   4.410180E-02   2.940265E-02   4.459320E-02   1.205744E-01   2.163604E-01   1.562815E-01   5.156234E-02   3.511453E-02   3.018475E-02   1.310950E-01   1.147548E-01   3.262318E-01   4.300544E-01   7.335896E-01   6.132011E-01   4.304497E-01   1.653483E-01   2.093407E-01   1.265487E-01   3.127827E-01   9.647907E-01   3.618652E-01   1.149530E-01   1.149530E-01   3.371719E-01   8.239712E-01   8.239712E-01   5.363418E-01   4.855218E-01   4.855218E-01   1.417610E-01   1.417610E-01   1.417610E-01   1.114728E-01   1.114728E-01   1.114728E-01   1.760969E-01   1.760969E-01   1.760969E-01   1.760969E-01   1.760969E-01   1.324863E-01   1.324863E-01   1.324863E-01   1.324863E-01   1.324863E-01   2.079376E-01   2.079376E-01   2.079376E-01   2.079376E-01   2.079376E-01   2.079376E-01   2.079376E-01   2.142875E-01   2.142875E-01   2.142875E-01   2.142875E-01   2.142875E-01   2.142875E-01   2.142875E-01   2.142875E-01   2.142875E-01   2.142875E-01   6.216114E-02   6.216114E-02   6.216114E-02   6.216114E-02   6.216114E-02   6.216114E-02   6.216114E-02   6.216114E-02   6.216114E-02   2.782326E-02   2.782326E-02   2.782326E-02   2.782326E-02   2.782326E-02   2.782326E-02   2.782326E-02   2.779239E-02   2.779239E-02   2.779239E-02   2.779239E-02   2.779239E-02   1.268325E-02   1.268325E-02   1.268325E-02   1.268325E-02   1.362472E-02   1.362472E-02   1.362472E-02   2.156491E-02   2.156491E-02   8.135873E-02   8.135873E-02   2.582417E-01   2.582417E-01   2.004784E-01   2.927292E-01   1.506983E-01   1.506983E-01   1.553891E-01   7.669244E-02   5.013322E-02   5.585924E-02   1.137030E-01   3.454165E-01   2.498655E-01   9.795161E-02   9.013378E-02   4.512070E-02   1.549101E-01   9.501483E-02   1.162916E-01   1.699303E-01   1.371351E-01   9.518479E-02   1.284150E-01   8.590031E-02   1.058337E-01   4.786704E-02   7.095518E-02   1.419350E-01   4.248061E-01   1.172163E-01   1.154497E-01   1.050867E-01   7.801960E-02   1.299712E-01   9.073019E-02   7.508644E-02   3.965822E-02   1.456987E-01   6.956869E-02   1.858388E-01   1.200199E-01   5.199039E-02   4.009929E-02   3.933266E-02   3.395449E-02