# LPF package for  MODFLOW-2005, generated by Flopy.
        53    -1E+30         0  
         1
         0
   0.000000E+00
         0
         0
INTERNAL               1 (207E15.6) -1 #hk layer 1                    
   1.106098E-01   1.199315E-01   1.355061E-01   3.203417E-02   3.785994E-02   5.467366E-02   7.035486E-02   5.441745E-02   2.114295E-01   1.544081E-01   2.667411E-01   1.442312E-01   6.835672E-02   7.168026E-02   6.898507E-02   5.444104E-02   4.905270E-02   3.327324E-01   2.919231E-01   8.674800E-02   7.228910E-02   3.600005E-02   2.519912E-02   5.665060E-02   9.442269E-02   1.060341E-01   3.189505E-01   1.571481E-01   3.394420E-02   3.272254E-02   9.237331E-02   1.953227E-01   3.491712E-01   1.551823E-01   4.318605E-02   2.723396E-02   2.964511E-02   1.066003E-01   1.244638E-01   6.486487E-02   1.248945E-01   1.197257E-01   9.061660E-02   1.218706E-01   1.245790E-01   1.274254E-01   1.785741E-01   2.098157E-01   4.146280E-01   2.997969E-01   4.657024E-01   3.303750E-01   1.435391E-01   6.083345E-02   1.685743E-01   2.196593E-01   8.277532E-02   8.656759E-02   8.072440E-02   1.025532E-01   3.758859E-02   1.709703E-01   1.211694E-01   1.237219E-01   9.048633E-02   4.889200E-02   8.812664E-02   4.778748E-02   3.528951E-02   6.993633E-02   3.326498E-02   1.775994E-02   1.161476E-02   9.018906E-03   3.002697E-02   4.241807E-02   4.408903E-02   8.257721E-02   5.423101E-02   2.427367E-01   1.113367E-01   6.957065E-02   5.286409E-02   4.222937E-02   6.919301E-02   1.437001E-01   1.439006E-01   1.540543E-01   8.575619E-02   7.904086E-02   7.904086E-02   2.418893E-01   2.650084E-01   2.650084E-01   2.669191E-01   2.876317E-01   2.876317E-01   6.376115E-02   6.376115E-02   6.376115E-02   6.273034E-02   6.273034E-02   6.273034E-02   4.239311E-02   4.239311E-02   4.239311E-02   4.239311E-02   4.239311E-02   3.663830E-02   3.663830E-02   3.663830E-02   3.663830E-02   3.663830E-02   4.324900E-02   4.324900E-02   4.324900E-02   4.324900E-02   4.324900E-02   4.324900E-02   4.324900E-02   8.958705E-02   8.958705E-02   8.958705E-02   8.958705E-02   8.958705E-02   8.958705E-02   8.958705E-02   8.958705E-02   8.958705E-02   8.958705E-02   1.241213E-01   1.241213E-01   1.241213E-01   1.241213E-01   1.241213E-01   1.241213E-01   1.241213E-01   1.241213E-01   1.241213E-01   1.350246E-01   1.350246E-01   1.350246E-01   1.350246E-01   1.350246E-01   1.350246E-01   1.350246E-01   4.404075E-02   4.404075E-02   4.404075E-02   4.404075E-02   4.404075E-02   4.484320E-02   4.484320E-02   4.484320E-02   4.484320E-02   1.693732E-02   1.693732E-02   1.693732E-02   1.139614E-02   1.139614E-02   8.314459E-03   8.314459E-03   4.428238E-02   4.428238E-02   4.501314E-02   8.862148E-02   1.636212E-01   1.636212E-01   1.973449E-01   7.107736E-02   1.262925E-01   2.539150E-01   2.836168E-01   1.208056E-01   2.457957E-01   2.198884E-01   2.492804E-02   9.708012E-02   3.885669E-02   6.392638E-02   1.248217E-01   1.821842E-01   1.596024E-01   1.640135E-01   1.975293E-01   9.920842E-02   9.230294E-02   5.335017E-02   1.989706E-01   7.036234E-02   1.672787E-01   1.419200E-01   1.857456E-01   1.058256E-01   3.048862E-02   4.587448E-02   9.985314E-02   1.593134E-01   3.737734E-01   4.211017E-01   2.054349E-01   3.668300E-01   3.134406E-01   1.387037E-01   1.582945E-01   8.396748E-02   9.840187E-02
   1.397046E-01   1.479421E-01   7.168632E-02   7.071007E-02   5.538434E-02   1.188953E-01   1.447140E-01   8.789297E-02   2.105121E-01   1.343469E-01   2.313746E-01   2.127753E-01   9.530200E-02   8.416696E-02   3.241899E-02   3.712032E-02   8.342126E-02   1.781755E-01   1.815371E-01   4.364058E-02   4.292979E-02   3.608866E-02   4.261914E-02   5.043620E-02   6.211871E-02   9.549433E-02   2.362861E-01   7.686764E-02   2.482246E-02   3.467369E-02   3.809577E-02   1.715932E-01   3.816797E-01   1.635630E-01   8.400411E-02   4.471572E-02   2.159030E-02   5.646000E-02   5.110458E-02   1.084685E-01   9.140601E-02   7.697790E-02   4.744379E-02   5.920813E-02   7.785633E-02   1.007314E-01   3.682523E-01   5.050467E-01   2.635884E-01   3.388797E-01   4.490031E-01   2.126582E-01   1.721894E-01   1.106037E-01   1.878199E-01   1.685318E-01   6.344964E-02   7.879605E-02   9.721846E-02   1.362001E-01   4.276827E-02   2.197455E-01   2.433293E-01   3.359396E-01   1.007266E-01   6.178000E-02   7.527469E-02   2.874557E-02   3.540832E-02   2.612919E-02   6.285263E-02   3.158144E-02   1.546614E-02   1.446821E-02   1.299479E-02   4.688791E-02   4.525838E-02   1.160151E-01   1.466722E-01   2.484682E-01   1.309530E-01   9.006424E-02   5.039383E-02   4.187853E-02   3.473531E-02   1.020377E-01   1.086030E-01   2.486131E-01   1.913270E-01   1.768344E-01   1.768344E-01   4.196250E-01   2.115946E-01   2.115946E-01   3.106025E-01   1.845654E-01   1.845654E-01   1.197108E-01   1.197108E-01   1.197108E-01   4.212195E-02   4.212195E-02   4.212195E-02   2.428365E-02   2.428365E-02   2.428365E-02   2.428365E-02   2.428365E-02   4.539588E-02   4.539588E-02   4.539588E-02   4.539588E-02   4.539588E-02   4.108759E-02   4.108759E-02   4.108759E-02   4.108759E-02   4.108759E-02   4.108759E-02   4.108759E-02   1.268600E-01   1.268600E-01   1.268600E-01   1.268600E-01   1.268600E-01   1.268600E-01   1.268600E-01   1.268600E-01   1.268600E-01   1.268600E-01   1.541285E-01   1.541285E-01   1.541285E-01   1.541285E-01   1.541285E-01   1.541285E-01   1.541285E-01   1.541285E-01   1.541285E-01   9.306019E-02   9.306019E-02   9.306019E-02   9.306019E-02   9.306019E-02   9.306019E-02   9.306019E-02   2.868726E-02   2.868726E-02   2.868726E-02   2.868726E-02   2.868726E-02   8.807888E-02   8.807888E-02   8.807888E-02   8.807888E-02   4.282056E-02   4.282056E-02   4.282056E-02   4.825117E-02   4.825117E-02   2.293875E-02   2.293875E-02   2.957114E-02   2.957114E-02   3.322830E-02   7.297756E-02   9.145922E-02   9.145922E-02   1.250239E-01   2.229488E-01   1.946722E-01   1.501355E-01   3.718264E-01   4.950427E-01   4.920482E-01   2.413135E-01   3.808028E-02   5.352752E-02   6.161047E-02   7.100140E-02   6.607242E-02   2.040798E-01   1.333433E-01   1.341993E-01   1.748386E-01   1.009879E-01   7.340726E-02   7.425917E-02   1.279218E-01   8.947891E-02   1.465793E-01   1.024055E-01   3.269592E-01   1.851980E-01   5.322180E-02   1.086032E-01   1.673640E-01   9.358153E-02   1.919957E-01   2.123066E-01   4.448381E-01   5.512599E-01   4.467714E-01   2.310668E-01   3.829353E-01   1.301039E-01   7.594026E-02
   2.178491E-01   1.689921E-01   1.398407E-01   7.315311E-02   1.494865E-01   1.375915E-01   1.056620E-01   2.288303E-01   2.346629E-01   1.058006E-01   2.083869E-01   1.915371E-01   3.955941E-02   7.609090E-02   2.640260E-02   2.199352E-02   2.309709E-02   1.003291E-01   1.166972E-01   5.498434E-02   5.085614E-02   3.709774E-02   3.133483E-02   2.897294E-02   3.377295E-02   1.207391E-01   1.519849E-01   5.574017E-02   3.177406E-02   2.263150E-02   4.485113E-02   1.743092E-01   2.809701E-01   1.466168E-01   1.240732E-01   5.924075E-02   4.021000E-02   8.372167E-02   3.848168E-02   1.423131E-01   4.985187E-02   4.570775E-02   5.728756E-02   4.526347E-02   1.439070E-01   1.491861E-01   3.975821E-01   1.074858E+00   2.081490E-01   2.935826E-01   3.186135E-01   2.288202E-01   1.104269E-01   1.317143E-01   7.161226E-02   1.459690E-01   6.608222E-02   9.432513E-02   1.641102E-01   9.731052E-02   6.096848E-02   2.248990E-01   4.829227E-01   3.794296E-01   3.015811E-01   5.024778E-02   9.909339E-02   6.180808E-02   3.025948E-02   2.718632E-02   2.111320E-02   1.561769E-02   1.912027E-02   2.617352E-02   2.210454E-02   3.440333E-02   4.897366E-02   8.069602E-02   2.023695E-01   1.893939E-01   1.864399E-01   6.337783E-02   9.523509E-02   1.568407E-02   2.164958E-02   9.948342E-02   1.305242E-01   1.868599E-01   1.945094E-01   1.728148E-01   1.728148E-01   3.340401E-01   2.033028E-01   2.033028E-01   1.425329E-01   3.594589E-02   3.594589E-02   4.598267E-02   4.598267E-02   4.598267E-02   4.968720E-02   4.968720E-02   4.968720E-02   3.108777E-02   3.108777E-02   3.108777E-02   3.108777E-02   3.108777E-02   2.608052E-02   2.608052E-02   2.608052E-02   2.608052E-02   2.608052E-02   4.517654E-02   4.517654E-02   4.517654E-02   4.517654E-02   4.517654E-02   4.517654E-02   4.517654E-02   5.533044E-02   5.533044E-02   5.533044E-02   5.533044E-02   5.533044E-02   5.533044E-02   5.533044E-02   5.533044E-02   5.533044E-02   5.533044E-02   1.396951E-01   1.396951E-01   1.396951E-01   1.396951E-01   1.396951E-01   1.396951E-01   1.396951E-01   1.396951E-01   1.396951E-01   4.896656E-02   4.896656E-02   4.896656E-02   4.896656E-02   4.896656E-02   4.896656E-02   4.896656E-02   1.981608E-02   1.981608E-02   1.981608E-02   1.981608E-02   1.981608E-02   7.050089E-02   7.050089E-02   7.050089E-02   7.050089E-02   1.031492E-01   1.031492E-01   1.031492E-01   4.307674E-02   4.307674E-02   5.623163E-02   5.623163E-02   3.456387E-02   3.456387E-02   4.040096E-02   7.172979E-02   1.125983E-01   1.125983E-01   7.589927E-02   2.523797E-01   1.701532E-01   2.295987E-01   2.076691E-01   2.807464E-01   2.723886E-01   2.220440E-01   4.109032E-02   6.484812E-02   6.054800E-02   5.708152E-02   4.096721E-02   6.951692E-02   1.228142E-01   1.703547E-01   8.517296E-02   1.015988E-01   8.893742E-02   8.337598E-02   9.677937E-02   8.410938E-02   1.377256E-01   1.074207E-01   2.882881E-01   2.238663E-01   1.382242E-01   1.103198E-01   6.261238E-02   1.027081E-01   1.565649E-01   1.909448E-01   5.233533E-01   3.602468E-01   2.687955E-01   1.523588E-01   3.036065E-01   9.053876E-02   5.829307E-02
   1.457933E-01   2.308386E-01   4.927852E-02   5.357124E-02   1.357107E-01   1.964686E-01   2.408922E-01   4.164852E-01   2.223460E-01   1.253494E-01   1.738522E-01   7.075275E-02   3.490935E-02   3.739318E-02   1.353523E-02   2.000551E-02   3.473156E-02   3.723672E-02   5.880156E-02   4.473816E-02   4.583442E-02   1.825998E-02   4.162785E-02   2.769068E-02   5.688684E-02   1.331561E-01   1.529809E-01   5.825502E-02   3.642048E-02   2.119465E-02   3.653816E-02   1.554115E-01   4.848650E-01   3.632048E-01   1.013130E-01   9.234758E-02   3.422129E-02   1.155693E-01   8.585860E-02   7.647393E-02   4.158795E-02   2.482463E-02   1.902652E-02   2.123279E-02   7.364687E-02   3.729965E-01   2.884716E-01   5.535881E-01   4.597933E-01   2.782718E-01   2.096938E-01   2.345049E-01   7.200851E-02   9.257562E-02   6.656155E-02   1.944658E-01   1.404344E-01   8.274601E-02   1.290716E-01   6.705425E-02   1.083786E-01   4.072016E-01   4.316634E-01   7.295622E-01   6.549432E-01   4.695863E-02   4.324498E-02   1.120268E-01   1.510509E-02   2.611376E-02   1.301366E-02   3.427062E-02   3.856667E-02   2.664935E-02   2.781894E-02   2.144025E-02   3.181291E-02   1.016445E-01   1.473440E-01   1.238331E-01   1.253515E-01   1.171682E-01   7.951509E-02   1.312822E-02   1.499677E-02   7.764018E-02   8.085316E-02   1.585626E-01   1.033699E-01   1.968906E-01   1.968906E-01   2.081029E-01   7.476494E-02   7.476494E-02   1.316953E-01   2.908031E-02   2.908031E-02   3.160201E-02   3.160201E-02   3.160201E-02   2.781337E-02   2.781337E-02   2.781337E-02   3.428340E-02   3.428340E-02   3.428340E-02   3.428340E-02   3.428340E-02   8.360587E-02   8.360587E-02   8.360587E-02   8.360587E-02   8.360587E-02   3.736848E-02   3.736848E-02   3.736848E-02   3.736848E-02   3.736848E-02   3.736848E-02   3.736848E-02   6.821971E-02   6.821971E-02   6.821971E-02   6.821971E-02   6.821971E-02   6.821971E-02   6.821971E-02   6.821971E-02   6.821971E-02   6.821971E-02   1.908064E-01   1.908064E-01   1.908064E-01   1.908064E-01   1.908064E-01   1.908064E-01   1.908064E-01   1.908064E-01   1.908064E-01   5.122296E-02   5.122296E-02   5.122296E-02   5.122296E-02   5.122296E-02   5.122296E-02   5.122296E-02   1.987380E-02   1.987380E-02   1.987380E-02   1.987380E-02   1.987380E-02   7.291535E-02   7.291535E-02   7.291535E-02   7.291535E-02   1.656424E-01   1.656424E-01   1.656424E-01   1.372183E-01   1.372183E-01   5.904252E-02   5.904252E-02   7.099394E-02   7.099394E-02   7.327177E-02   6.462285E-02   9.164196E-02   9.164196E-02   8.480839E-02   1.483951E-01   1.419903E-01   1.966912E-01   2.091738E-01   1.569944E-01   2.774327E-01   3.495606E-01   8.363168E-02   7.195538E-02   1.234855E-01   5.631190E-02   6.150264E-02   7.472230E-02   7.417596E-02   3.290837E-02   5.426235E-02   3.690393E-02   7.607424E-02   1.007952E-01   1.423247E-01   1.682191E-01   1.718413E-01   1.275306E-01   1.825285E-01   3.446580E-01   2.583944E-01   1.021469E-01   4.900725E-02   8.258447E-02   2.288141E-01   2.558823E-01   2.291249E-01   2.796716E-01   2.072605E-01   2.398771E-01   2.136663E-01   1.305833E-01   6.542846E-02
   1.206264E-01   2.794363E-01   8.633483E-02   9.416294E-02   2.362038E-01   3.478297E-01   6.722543E-01   1.019601E+00   2.045338E-01   6.532276E-02   1.697679E-01   8.152345E-02   3.957453E-02   5.731779E-02   7.328722E-03   2.632282E-02   2.256663E-02   2.029103E-02   2.742404E-02   2.283570E-02   2.275208E-02   2.094115E-02   3.506409E-02   3.887875E-02   7.956371E-02   1.351343E-01   1.258324E-01   6.300435E-02   3.321672E-02   2.811160E-02   9.071538E-02   1.980053E-01   3.216684E-01   3.035986E-01   1.274020E-01   6.403366E-02   5.846525E-02   1.658908E-01   7.405089E-02   7.392252E-02   1.747494E-02   1.117242E-02   1.268688E-02   2.000549E-02   3.945975E-02   1.935490E-01   4.551235E-01   1.256548E+00   5.130454E-01   2.207558E-01   6.705066E-02   1.164465E-01   1.080260E-01   3.643342E-02   1.019073E-01   1.993753E-01   1.546166E-01   1.415764E-01   1.378315E-01   9.654037E-02   1.971262E-01   4.101636E-01   4.675570E-01   3.758536E-01   4.589717E-01   7.631512E-02   3.263153E-02   3.243661E-02   1.131743E-02   3.250622E-02   2.815468E-02   2.502903E-02   6.536888E-02   4.685368E-02   4.442535E-02   3.026330E-02   5.372373E-02   8.292986E-02   7.952094E-02   1.353423E-01   1.933868E-01   1.148386E-01   1.189721E-01   1.531680E-02   1.406471E-02   1.421739E-01   9.178706E-02   6.736173E-02   4.805153E-02   9.527503E-02   9.527503E-02   1.291342E-01   3.149823E-02   3.149823E-02   6.733569E-02   2.188810E-02   2.188810E-02   1.282776E-02   1.282776E-02   1.282776E-02   3.953980E-02   3.953980E-02   3.953980E-02   5.609440E-02   5.609440E-02   5.609440E-02   5.609440E-02   5.609440E-02   6.216107E-02   6.216107E-02   6.216107E-02   6.216107E-02   6.216107E-02   5.733379E-02   5.733379E-02   5.733379E-02   5.733379E-02   5.733379E-02   5.733379E-02   5.733379E-02   8.198614E-02   8.198614E-02   8.198614E-02   8.198614E-02   8.198614E-02   8.198614E-02   8.198614E-02   8.198614E-02   8.198614E-02   8.198614E-02   7.584232E-02   7.584232E-02   7.584232E-02   7.584232E-02   7.584232E-02   7.584232E-02   7.584232E-02   7.584232E-02   7.584232E-02   6.629355E-02   6.629355E-02   6.629355E-02   6.629355E-02   6.629355E-02   6.629355E-02   6.629355E-02   4.545282E-02   4.545282E-02   4.545282E-02   4.545282E-02   4.545282E-02   5.914756E-02   5.914756E-02   5.914756E-02   5.914756E-02   9.259383E-02   9.259383E-02   9.259383E-02   8.916395E-02   8.916395E-02   8.486503E-02   8.486503E-02   6.512979E-02   6.512979E-02   7.451969E-02   4.855316E-02   1.350746E-01   1.350746E-01   6.030821E-02   8.803714E-02   8.494151E-02   1.922358E-01   1.394608E-01   7.668527E-02   3.700305E-01   4.172590E-01   2.586381E-01   1.299768E-01   8.443281E-02   1.269310E-01   1.096343E-01   5.453761E-02   1.335993E-01   6.960220E-02   1.601762E-02   1.199622E-02   3.000342E-02   5.425471E-02   8.554100E-02   1.120676E-01   1.548445E-01   1.473445E-01   7.233420E-02   2.555927E-01   1.949590E-01   1.085143E-01   7.678094E-02   4.568439E-02   7.040406E-02   2.592524E-01   2.101785E-01   1.480417E-01   1.390980E-01   5.366870E-01   1.614931E-01   3.617434E-01   8.379973E-02
   1.110780E-01   1.646775E-01   1.662533E-01   1.332725E-01   2.384421E-01   4.910711E-01   7.822723E-01   6.679961E-01   6.818280E-01   2.167103E-01   7.563794E-02   4.234764E-02   4.328394E-02   4.016498E-02   1.008933E-02   2.189427E-02   2.430525E-02   1.769726E-02   2.323531E-02   3.069923E-02   1.567534E-02   1.356057E-02   1.584286E-02   5.557925E-02   1.850915E-01   1.636792E-01   1.326833E-01   6.480640E-02   3.462559E-02   5.422372E-02   1.593096E-01   2.389895E-01   1.970390E-01   3.317553E-01   1.324375E-01   6.291809E-02   6.765597E-02   5.667805E-02   9.712653E-02   8.693132E-02   7.737956E-03   1.288029E-02   1.128072E-02   3.392763E-02   6.808889E-02   1.927443E-01   2.507880E-01   1.698882E+00   4.784988E-01   2.139460E-01   8.188368E-02   1.049405E-01   2.281057E-01   4.628340E-02   1.166994E-01   1.151788E-01   1.855476E-01   8.710531E-01   2.281871E-01   1.251814E-01   1.761041E-01   1.573474E-01   6.164197E-01   7.591026E-01   4.686958E-01   1.505145E-01   3.488837E-02   1.807418E-02   6.594775E-03   2.203469E-02   3.348488E-02   4.024180E-02   7.923946E-02   9.165510E-02   3.640682E-02   1.472649E-02   4.581744E-02   5.384148E-02   9.459763E-02   8.371108E-02   1.387270E-01   1.130880E-01   1.281292E-01   2.293595E-02   2.432542E-02   6.242315E-02   6.529164E-02   6.506237E-02   2.702613E-02   2.251762E-02   2.251762E-02   1.999552E-02   8.530980E-02   8.530980E-02   8.297197E-02   1.263902E-02   1.263902E-02   2.018566E-02   2.018566E-02   2.018566E-02   3.833490E-02   3.833490E-02   3.833490E-02   7.645437E-02   7.645437E-02   7.645437E-02   7.645437E-02   7.645437E-02   6.328021E-02   6.328021E-02   6.328021E-02   6.328021E-02   6.328021E-02   1.334724E-01   1.334724E-01   1.334724E-01   1.334724E-01   1.334724E-01   1.334724E-01   1.334724E-01   6.593244E-02   6.593244E-02   6.593244E-02   6.593244E-02   6.593244E-02   6.593244E-02   6.593244E-02   6.593244E-02   6.593244E-02   6.593244E-02   1.199182E-01   1.199182E-01   1.199182E-01   1.199182E-01   1.199182E-01   1.199182E-01   1.199182E-01   1.199182E-01   1.199182E-01   1.386147E-01   1.386147E-01   1.386147E-01   1.386147E-01   1.386147E-01   1.386147E-01   1.386147E-01   7.113080E-02   7.113080E-02   7.113080E-02   7.113080E-02   7.113080E-02   1.189115E-01   1.189115E-01   1.189115E-01   1.189115E-01   9.044870E-02   9.044870E-02   9.044870E-02   1.127482E-01   1.127482E-01   2.058133E-01   2.058133E-01   1.010536E-01   1.010536E-01   1.312042E-01   6.639650E-02   6.598881E-02   6.598881E-02   9.070036E-02   3.903066E-02   1.352502E-01   1.600377E-01   1.217874E-01   1.579213E-01   3.044185E-01   1.905347E-01   2.192518E-01   2.185980E-01   1.485002E-01   1.243219E-01   1.250587E-01   9.114066E-02   7.348148E-02   3.762037E-02   2.954774E-02   1.152909E-02   1.553370E-02   2.188866E-02   6.327765E-02   9.543652E-02   2.376768E-01   3.544198E-01   7.233454E-02   3.813656E-01   9.575127E-02   3.323297E-02   9.552714E-02   1.014857E-01   5.846985E-02   1.344083E-01   2.298703E-01   1.380184E-01   1.008154E-01   5.533280E-01   2.094299E-01   3.881496E-01   3.452761E-01
   1.324802E-01   1.121898E-01   1.498540E-01   2.383463E-01   2.012955E-01   4.944433E-01   8.122898E-01   6.423424E-01   2.814150E-01   3.247941E-01   1.128263E-01   2.146802E-02   2.854616E-02   2.753608E-02   1.014832E-02   1.570664E-02   2.072752E-02   5.157163E-02   4.880950E-02   1.887693E-02   4.555977E-02   1.906285E-02   2.598776E-02   1.344120E-01   4.218399E-01   3.673289E-01   2.460307E-01   7.277799E-02   3.124182E-02   6.465605E-02   7.708856E-02   5.462130E-01   1.538223E-01   1.067087E-01   1.165434E-01   9.891198E-02   7.577913E-02   7.308018E-02   7.548686E-02   2.194247E-02   1.923894E-02   1.268441E-02   1.657105E-02   8.629623E-03   5.513047E-02   2.380013E-01   1.819413E-01   1.138527E+00   3.418435E-01   1.958669E-01   1.190666E-01   1.104082E-01   1.337295E-01   1.257505E-01   1.468395E-01   1.245387E-01   2.713889E-01   2.605328E-01   2.423772E-01   1.565827E-01   1.318976E-01   1.327004E-01   2.479225E-01   6.442389E-01   4.456975E-01   1.428500E-01   1.395196E-02   1.361397E-02   1.412222E-02   3.459570E-02   3.054295E-02   4.789291E-02   8.047368E-02   8.430716E-02   6.381270E-02   1.238642E-02   8.301409E-02   9.178428E-02   1.071752E-01   7.015365E-02   9.637266E-02   1.099169E-01   8.054242E-02   3.403642E-02   2.623815E-02   6.448076E-02   2.637998E-02   4.539669E-02   4.190625E-02   2.451576E-02   2.451576E-02   1.941995E-02   8.977322E-02   8.977322E-02   1.004134E-01   1.381228E-02   1.381228E-02   3.924826E-02   3.924826E-02   3.924826E-02   6.738313E-02   6.738313E-02   6.738313E-02   8.686806E-02   8.686806E-02   8.686806E-02   8.686806E-02   8.686806E-02   5.121218E-02   5.121218E-02   5.121218E-02   5.121218E-02   5.121218E-02   1.338729E-01   1.338729E-01   1.338729E-01   1.338729E-01   1.338729E-01   1.338729E-01   1.338729E-01   1.251194E-01   1.251194E-01   1.251194E-01   1.251194E-01   1.251194E-01   1.251194E-01   1.251194E-01   1.251194E-01   1.251194E-01   1.251194E-01   9.486710E-02   9.486710E-02   9.486710E-02   9.486710E-02   9.486710E-02   9.486710E-02   9.486710E-02   9.486710E-02   9.486710E-02   1.008316E-01   1.008316E-01   1.008316E-01   1.008316E-01   1.008316E-01   1.008316E-01   1.008316E-01   5.227269E-02   5.227269E-02   5.227269E-02   5.227269E-02   5.227269E-02   1.190580E-01   1.190580E-01   1.190580E-01   1.190580E-01   1.097622E-01   1.097622E-01   1.097622E-01   9.860593E-02   9.860593E-02   2.781270E-01   2.781270E-01   3.020514E-01   3.020514E-01   2.047642E-01   1.957206E-01   1.488807E-01   1.488807E-01   1.207370E-01   5.495090E-02   1.192479E-01   1.082684E-01   6.342788E-02   1.283244E-01   3.172367E-01   1.549300E-01   2.573985E-01   1.352380E-01   2.766962E-01   1.926620E-01   1.040236E-01   6.754446E-02   6.141872E-02   3.912477E-02   1.965195E-02   1.045309E-02   1.709326E-02   1.442873E-02   4.956503E-02   9.575357E-02   1.431297E-01   1.768465E-01   1.409581E-01   1.816688E-01   4.529219E-02   3.380969E-02   3.712674E-02   1.169985E-01   1.634731E-01   1.204104E-01   2.072284E-01   1.355584E-01   7.554422E-02   4.298195E-01   1.747027E-01   6.999558E-01   4.545859E-01
   1.405002E-01   7.632792E-02   1.758683E-01   4.868128E-01   2.753166E-01   2.389829E-01   4.538335E-01   2.378638E-01   3.502600E-01   2.165682E-01   1.603995E-01   3.723530E-02   5.075890E-02   4.115994E-02   2.103010E-02   1.658452E-02   2.402321E-02   6.297211E-02   4.025913E-02   2.390536E-02   3.214537E-02   2.666546E-02   3.708905E-02   1.015240E-01   1.771125E-01   3.831019E-01   2.037507E-01   4.231866E-02   7.660770E-02   5.710040E-02   1.199846E-01   5.398059E-01   1.492045E-01   6.645273E-02   1.499954E-01   1.537389E-01   2.224412E-01   1.661813E-01   6.274330E-02   2.470343E-02   2.642942E-02   1.123241E-02   3.499667E-02   1.105199E-02   5.642906E-02   1.405376E-01   1.532394E-01   6.128700E-01   2.532813E-01   8.526369E-02   1.783065E-01   6.186306E-02   1.442083E-01   2.392172E-01   1.099218E-01   2.463881E-01   5.652112E-01   3.007998E-01   1.221613E-01   1.509956E-01   1.209513E-01   1.110593E-01   1.693798E-01   3.160611E-01   2.161830E-01   1.079099E-01   3.306736E-02   2.395177E-02   2.122763E-02   4.030000E-02   2.310571E-02   4.398381E-02   1.048405E-01   1.811342E-01   1.105119E-01   4.071148E-02   2.645285E-01   1.104956E-01   7.628392E-02   3.343637E-02   6.436357E-02   1.032515E-01   9.073187E-02   1.172368E-01   7.758856E-02   5.820692E-02   5.329088E-02   2.627851E-02   3.163162E-02   3.181372E-02   3.181372E-02   3.302897E-02   1.834386E-01   1.834386E-01   1.187425E-01   1.961229E-02   1.961229E-02   4.242250E-02   4.242250E-02   4.242250E-02   9.158905E-02   9.158905E-02   9.158905E-02   1.049399E-01   1.049399E-01   1.049399E-01   1.049399E-01   1.049399E-01   9.120285E-02   9.120285E-02   9.120285E-02   9.120285E-02   9.120285E-02   2.740080E-01   2.740080E-01   2.740080E-01   2.740080E-01   2.740080E-01   2.740080E-01   2.740080E-01   1.499444E-01   1.499444E-01   1.499444E-01   1.499444E-01   1.499444E-01   1.499444E-01   1.499444E-01   1.499444E-01   1.499444E-01   1.499444E-01   1.434849E-01   1.434849E-01   1.434849E-01   1.434849E-01   1.434849E-01   1.434849E-01   1.434849E-01   1.434849E-01   1.434849E-01   4.486595E-02   4.486595E-02   4.486595E-02   4.486595E-02   4.486595E-02   4.486595E-02   4.486595E-02   4.904100E-02   4.904100E-02   4.904100E-02   4.904100E-02   4.904100E-02   8.962539E-02   8.962539E-02   8.962539E-02   8.962539E-02   7.208349E-02   7.208349E-02   7.208349E-02   1.333242E-01   1.333242E-01   3.045114E-01   3.045114E-01   3.060311E-01   3.060311E-01   2.059420E-01   5.306000E-01   2.537690E-01   2.537690E-01   9.181397E-02   4.584306E-02   1.401873E-01   6.247744E-02   7.481464E-02   1.098178E-01   2.311740E-01   3.970041E-01   2.923800E-01   1.392684E-01   1.860118E-01   1.620592E-01   4.718723E-02   6.280223E-02   3.466693E-02   2.406912E-02   2.929887E-02   7.271348E-03   2.164380E-02   2.271114E-02   5.969138E-02   1.232696E-01   3.785703E-01   1.569194E-01   1.212914E-01   1.481645E-01   2.277108E-02   2.354071E-02   6.554415E-02   1.013568E-01   3.288039E-01   2.253910E-01   1.082300E-01   9.681237E-02   7.415862E-02   3.512825E-01   2.584225E-01   5.066871E-01   3.659341E-01
   6.015845E-02   8.736620E-02   2.296950E-01   1.700974E-01   1.985663E-01   9.019724E-02   2.076938E-01   1.755491E-01   2.041585E-01   2.510571E-01   1.997200E-01   2.107053E-02   3.861359E-02   3.622595E-02   1.993977E-02   2.884713E-02   7.031024E-02   9.085619E-02   2.046441E-02   3.164448E-02   3.072372E-02   3.533329E-02   8.916956E-02   3.415925E-01   1.442575E-01   2.471890E-01   1.232197E-01   1.020266E-01   4.805813E-02   3.957744E-02   1.389422E-01   5.423117E-01   9.699217E-02   6.722920E-02   2.869323E-01   1.793595E-01   4.180453E-01   1.408639E-01   8.190686E-02   1.879299E-02   3.381023E-02   1.234943E-02   3.002634E-02   1.143707E-02   4.209353E-02   7.816702E-02   2.542790E-01   3.297040E-01   2.045147E-01   1.114740E-01   1.789640E-01   3.731272E-02   1.182298E-01   3.053794E-01   1.594753E-01   3.795905E-01   3.822487E-01   3.824439E-01   2.756119E-01   1.261054E-01   1.717308E-01   8.693541E-02   9.863894E-02   1.837733E-01   1.297515E-01   4.422519E-02   7.126794E-02   1.615146E-02   3.721756E-02   2.604895E-02   2.887060E-02   5.760821E-02   7.788511E-02   9.680000E-02   1.955599E-01   7.049562E-02   1.310574E-01   3.332619E-02   3.036023E-02   5.503795E-02   2.451859E-01   1.856282E-01   1.776430E-01   1.985116E-01   6.969574E-02   3.336820E-02   4.018444E-02   2.941940E-02   3.641303E-02   5.032883E-02   5.032883E-02   3.535914E-02   1.286248E-01   1.286248E-01   1.356909E-01   5.540190E-02   5.540190E-02   4.638370E-02   4.638370E-02   4.638370E-02   8.718668E-02   8.718668E-02   8.718668E-02   1.239638E-01   1.239638E-01   1.239638E-01   1.239638E-01   1.239638E-01   1.980791E-01   1.980791E-01   1.980791E-01   1.980791E-01   1.980791E-01   1.805311E-01   1.805311E-01   1.805311E-01   1.805311E-01   1.805311E-01   1.805311E-01   1.805311E-01   1.010117E-01   1.010117E-01   1.010117E-01   1.010117E-01   1.010117E-01   1.010117E-01   1.010117E-01   1.010117E-01   1.010117E-01   1.010117E-01   7.331254E-02   7.331254E-02   7.331254E-02   7.331254E-02   7.331254E-02   7.331254E-02   7.331254E-02   7.331254E-02   7.331254E-02   2.683036E-02   2.683036E-02   2.683036E-02   2.683036E-02   2.683036E-02   2.683036E-02   2.683036E-02   2.385886E-02   2.385886E-02   2.385886E-02   2.385886E-02   2.385886E-02   6.113363E-02   6.113363E-02   6.113363E-02   6.113363E-02   8.992257E-02   8.992257E-02   8.992257E-02   1.117151E-01   1.117151E-01   2.183023E-01   2.183023E-01   5.571355E-01   5.571355E-01   2.504989E-01   2.459065E-01   1.516704E-01   1.516704E-01   7.253737E-02   5.694230E-02   8.524016E-02   4.846402E-02   6.420378E-02   7.429636E-02   1.575840E-01   3.598435E-01   2.388958E-01   1.013872E-01   6.422942E-02   1.496046E-01   5.770001E-02   8.650049E-02   2.889547E-02   3.353020E-02   4.073866E-02   1.148708E-02   2.945656E-02   3.351387E-02   4.969212E-02   7.584749E-02   1.932672E-01   6.684043E-02   7.034003E-02   9.093147E-02   1.760019E-02   3.972594E-02   4.613889E-02   2.751097E-01   4.941819E-01   1.477885E-01   1.172062E-01   1.515499E-01   5.733944E-02   7.474497E-02   1.456084E-01   5.124370E-01   2.506264E-01