# LPF package for  MODFLOW-2005, generated by Flopy.
        53    -1E+30         0  
         1
         0
   0.000000E+00
         0
         0
INTERNAL               1 (207E15.6) -1 #hk layer 1                    
   2.274197E+01   2.017331E+01   3.879111E+01   2.280848E+01   4.309053E+01   6.097864E+01   2.152590E+02   2.236796E+02   6.768851E+01   3.616699E+01   1.712069E+01   2.999933E+01   5.931062E+01   1.217450E+02   4.671592E+01   7.313826E+01   1.251093E+02   8.674082E+01   5.657383E+01   2.317409E+01   3.942429E+01   7.972156E+01   2.216657E+01   1.915855E+01   9.882147E+01   7.098691E+01   1.656756E+02   4.952969E+01   3.333459E+01   2.609912E+01   2.440623E+01   1.020833E+02   1.661494E+02   2.144905E+02   3.377432E+01   2.045059E+01   7.376206E+01   2.194580E+01   1.634806E+01   1.319734E+01   1.490455E+01   5.206546E+01   3.084881E+01   9.451832E+00   1.561894E+01   1.118529E+01   3.377854E+01   1.703036E+01   1.609239E+01   5.346101E+00   1.399415E+01   2.207880E+01   5.285437E+01   3.588570E+02   1.503222E+02   2.212734E+02   1.244064E+02   1.679992E+02   8.848159E+01   1.086695E+02   9.573494E+01   2.363491E+01   1.715712E+01   2.412516E+01   1.237383E+02   6.862022E+01   1.321584E+02   7.445168E+01   6.101786E+01   1.988371E+02   1.176072E+02   3.373132E+01   3.172009E+01   2.648184E+01   7.034086E+01   1.021131E+02   5.624562E+01   3.461869E+01   6.446959E+00   3.437577E+00   4.472650E+00   5.637883E+00   2.119833E+01   2.445888E+01   1.896902E+02   1.664612E+02   1.453410E+02   1.398501E+02   1.277034E+02   1.286445E+02   1.286445E+02   8.069205E+01   1.017441E+02   1.017441E+02   5.783799E+01   1.552556E+02   1.552556E+02   2.003310E+02   2.003310E+02   2.003310E+02   4.723035E+01   4.723035E+01   4.723035E+01   1.009187E+02   1.009187E+02   1.009187E+02   1.009187E+02   1.009187E+02   1.489135E+02   1.489135E+02   1.489135E+02   1.489135E+02   1.489135E+02   3.621564E+01   3.621564E+01   3.621564E+01   3.621564E+01   3.621564E+01   3.621564E+01   3.621564E+01   5.149088E+01   5.149088E+01   5.149088E+01   5.149088E+01   5.149088E+01   5.149088E+01   5.149088E+01   5.149088E+01   5.149088E+01   5.149088E+01   3.420898E+01   3.420898E+01   3.420898E+01   3.420898E+01   3.420898E+01   3.420898E+01   3.420898E+01   3.420898E+01   3.420898E+01   2.581323E+01   2.581323E+01   2.581323E+01   2.581323E+01   2.581323E+01   2.581323E+01   2.581323E+01   8.673389E+01   8.673389E+01   8.673389E+01   8.673389E+01   8.673389E+01   3.484329E+01   3.484329E+01   3.484329E+01   3.484329E+01   2.934244E+01   2.934244E+01   2.934244E+01   4.289154E+01   4.289154E+01   4.100251E+01   4.100251E+01   4.152566E+01   4.152566E+01   2.558548E+01   2.065137E+01   1.967935E+01   1.967935E+01   2.432763E+01   6.222641E+01   3.369576E+01   6.995028E+01   4.243075E+01   7.588431E+01   4.049427E+01   2.074134E+01   5.655259E+01   4.171198E+01   8.884036E+01   6.448321E+01   5.976436E+01   3.542978E+01   2.431690E+01   3.647007E+01   6.073702E+01   6.476694E+01   2.524162E+01   2.700314E+01   3.221899E+01   2.050667E+01   4.509758E+01   5.280460E+01   3.718466E+01   5.461115E+01   4.184230E+01   3.047600E+01   2.636876E+01   3.023343E+01   2.263378E+01   2.779749E+01   3.086874E+01   6.682006E+01   4.760523E+01   1.001952E+02   1.602289E+02   1.018938E+02   2.636419E+01
   2.674034E+01   2.384647E+01   2.838552E+01   4.725787E+01   2.717835E+01   1.020265E+02   8.975036E+01   1.654790E+02   3.219405E+01   1.756680E+01   2.193700E+01   4.005663E+01   1.508327E+02   7.573117E+01   6.890443E+01   5.543715E+01   6.290897E+01   8.500672E+01   6.198794E+01   6.170533E+01   4.889566E+01   1.118360E+02   2.406130E+01   4.278741E+01   1.342312E+02   8.031498E+01   1.762766E+02   1.226701E+02   5.007993E+01   2.884095E+01   2.663176E+01   1.131402E+02   1.188775E+02   1.675599E+02   9.058376E+01   6.104482E+01   8.781998E+01   3.642759E+01   2.854747E+01   2.092926E+01   1.464573E+01   4.464395E+01   1.221799E+01   1.504232E+01   1.175163E+01   1.372371E+01   1.390941E+01   2.666673E+01   2.577134E+01   1.022882E+01   1.648057E+01   6.367596E+01   7.415757E+01   3.259726E+02   1.124471E+02   1.094769E+02   2.266635E+02   8.847363E+01   1.224870E+02   8.219782E+01   3.653389E+01   2.030610E+01   9.172787E+00   2.066883E+01   9.746428E+01   9.587440E+01   2.149738E+02   1.981992E+02   1.996009E+02   1.292731E+02   1.144624E+02   4.463900E+01   2.851847E+01   2.780867E+01   4.932415E+01   1.443290E+02   5.079860E+01   3.840427E+01   8.379049E+00   5.009937E+00   7.923846E+00   5.701560E+00   3.390778E+01   1.832014E+01   6.162143E+01   7.462334E+01   1.335385E+02   3.059757E+02   1.517416E+02   8.463902E+01   8.463902E+01   5.996796E+01   4.684010E+01   4.684010E+01   5.367451E+01   2.938125E+02   2.938125E+02   9.164442E+01   9.164442E+01   9.164442E+01   1.774942E+02   1.774942E+02   1.774942E+02   1.338313E+02   1.338313E+02   1.338313E+02   1.338313E+02   1.338313E+02   7.888332E+01   7.888332E+01   7.888332E+01   7.888332E+01   7.888332E+01   4.273325E+01   4.273325E+01   4.273325E+01   4.273325E+01   4.273325E+01   4.273325E+01   4.273325E+01   7.367953E+01   7.367953E+01   7.367953E+01   7.367953E+01   7.367953E+01   7.367953E+01   7.367953E+01   7.367953E+01   7.367953E+01   7.367953E+01   3.347838E+01   3.347838E+01   3.347838E+01   3.347838E+01   3.347838E+01   3.347838E+01   3.347838E+01   3.347838E+01   3.347838E+01   3.473743E+01   3.473743E+01   3.473743E+01   3.473743E+01   3.473743E+01   3.473743E+01   3.473743E+01   6.505528E+01   6.505528E+01   6.505528E+01   6.505528E+01   6.505528E+01   7.314593E+01   7.314593E+01   7.314593E+01   7.314593E+01   3.726117E+01   3.726117E+01   3.726117E+01   5.086120E+01   5.086120E+01   5.383332E+01   5.383332E+01   6.007139E+01   6.007139E+01   4.098105E+01   2.573432E+01   2.340380E+01   2.340380E+01   3.797775E+01   4.500246E+01   3.511223E+01   3.249021E+01   3.165171E+01   6.335838E+01   4.208683E+01   3.793031E+01   9.496700E+01   7.128091E+01   5.766612E+01   1.152071E+02   3.515378E+01   1.587933E+01   1.109583E+01   2.708889E+01   6.187597E+01   1.558320E+02   2.572670E+01   5.986241E+01   3.615743E+01   2.678828E+01   1.684291E+01   7.759399E+01   5.423776E+01   5.247948E+01   5.590472E+01   6.968378E+01   3.244033E+01   6.704428E+01   2.616713E+01   3.047957E+01   2.641338E+01   4.965986E+01   5.049993E+01   7.598071E+01   1.068540E+02   5.643810E+01   3.178505E+01
   2.088919E+01   1.094841E+01   3.022784E+01   4.828484E+01   3.339220E+01   1.550689E+02   1.444509E+02   1.242664E+02   2.750837E+01   7.163146E+00   4.887015E+01   5.044965E+01   7.105417E+01   1.075996E+01   3.417552E+01   2.552850E+01   7.954742E+01   8.873779E+01   1.363960E+02   1.717717E+02   8.638836E+01   7.164697E+01   2.054944E+01   3.563963E+01   8.862007E+01   9.224883E+01   8.032722E+01   1.053839E+02   3.811486E+01   2.558309E+01   3.179830E+01   1.643842E+02   1.163287E+02   2.530600E+02   6.599385E+01   9.799393E+01   6.735565E+01   3.857405E+01   4.268013E+01   1.840482E+01   2.175816E+01   3.520186E+01   8.803488E+00   2.882420E+01   2.351333E+01   2.534682E+01   1.435935E+01   2.307158E+01   2.070233E+01   1.882036E+01   2.610025E+01   9.525887E+01   1.128949E+02   1.104438E+02   6.162955E+01   1.703016E+02   1.887737E+02   1.493228E+02   9.016331E+01   6.988651E+01   2.190560E+01   2.594277E+01   6.842132E+00   1.798475E+01   5.495730E+01   1.374955E+02   3.886848E+02   2.609194E+02   2.237317E+02   1.201594E+02   5.584010E+01   3.899921E+01   1.936277E+01   1.265717E+01   4.823093E+01   1.876248E+02   5.169311E+01   6.575826E+01   6.079454E+01   2.908369E+01   1.185076E+01   1.341303E+01   3.067642E+01   4.641229E+01   4.307464E+01   1.737871E+02   9.326656E+01   2.141546E+02   2.133998E+02   1.054585E+02   1.054585E+02   7.017439E+01   1.004817E+02   1.004817E+02   7.484785E+01   2.870197E+02   2.870197E+02   1.285127E+02   1.285127E+02   1.285127E+02   1.368332E+02   1.368332E+02   1.368332E+02   9.806683E+01   9.806683E+01   9.806683E+01   9.806683E+01   9.806683E+01   7.324526E+01   7.324526E+01   7.324526E+01   7.324526E+01   7.324526E+01   7.181787E+01   7.181787E+01   7.181787E+01   7.181787E+01   7.181787E+01   7.181787E+01   7.181787E+01   4.999259E+01   4.999259E+01   4.999259E+01   4.999259E+01   4.999259E+01   4.999259E+01   4.999259E+01   4.999259E+01   4.999259E+01   4.999259E+01   4.658443E+01   4.658443E+01   4.658443E+01   4.658443E+01   4.658443E+01   4.658443E+01   4.658443E+01   4.658443E+01   4.658443E+01   3.273360E+01   3.273360E+01   3.273360E+01   3.273360E+01   3.273360E+01   3.273360E+01   3.273360E+01   3.820360E+01   3.820360E+01   3.820360E+01   3.820360E+01   3.820360E+01   9.382487E+01   9.382487E+01   9.382487E+01   9.382487E+01   4.123796E+01   4.123796E+01   4.123796E+01   6.432762E+01   6.432762E+01   1.140633E+02   1.140633E+02   8.668415E+01   8.668415E+01   3.881595E+01   4.488945E+01   3.346633E+01   3.346633E+01   2.942914E+01   2.466546E+01   2.252727E+01   1.553846E+01   1.638720E+01   8.852393E+01   5.491963E+01   3.017999E+01   5.932640E+01   9.885213E+01   4.143058E+01   6.640501E+01   4.185704E+01   7.776417E+00   1.045473E+01   2.339968E+01   7.162167E+01   2.201595E+02   3.772313E+01   5.847771E+01   3.720475E+01   3.534810E+01   3.855657E+01   1.151175E+02   7.600289E+01   5.903438E+01   1.363959E+02   4.973443E+01   7.777113E+01   6.914556E+01   2.554010E+01   3.948038E+01   4.118279E+01   5.078931E+01   4.940987E+01   4.433490E+01   1.379921E+02   4.530355E+01   3.154997E+01
   1.956383E+01   1.056309E+01   3.838015E+01   3.191883E+01   4.977541E+01   2.436271E+02   1.757985E+02   1.505049E+02   5.271628E+01   1.709271E+01   3.986760E+01   2.738385E+01   4.678954E+01   1.292507E+01   1.033570E+01   1.524599E+01   3.374189E+01   5.668911E+01   1.351523E+02   9.928423E+01   7.668375E+01   3.991256E+01   2.578404E+01   3.310295E+01   5.297424E+01   4.967088E+01   7.975314E+01   6.685482E+01   2.140762E+01   1.892526E+01   1.188236E+02   1.582936E+02   1.203805E+02   1.455116E+02   7.247630E+01   9.161411E+01   4.944476E+01   3.094728E+01   5.922721E+01   2.092871E+01   3.523574E+01   2.877338E+01   1.429531E+01   1.921242E+01   2.194023E+01   1.376458E+01   3.506683E+01   4.337284E+01   1.811444E+01   2.002904E+01   2.879530E+01   1.582597E+02   8.854426E+01   7.226440E+01   6.745885E+01   7.348374E+01   1.254789E+02   1.180039E+02   5.284009E+01   4.089637E+01   3.354371E+01   2.826544E+01   1.342717E+01   1.454834E+01   4.978074E+01   6.823123E+01   9.181599E+01   1.380567E+02   8.222066E+01   1.340825E+02   4.633340E+01   2.685236E+01   2.522738E+01   1.958049E+01   2.379215E+01   1.062469E+02   1.333906E+02   2.524155E+02   1.770874E+02   4.181034E+01   1.254456E+01   1.165237E+01   3.841284E+01   5.073762E+01   4.650311E+01   9.473904E+01   1.284764E+02   9.335253E+01   2.049671E+02   9.334586E+01   9.334586E+01   1.136804E+02   1.217590E+02   1.217590E+02   9.464824E+01   1.062141E+02   1.062141E+02   3.868600E+01   3.868600E+01   3.868600E+01   1.045242E+02   1.045242E+02   1.045242E+02   5.651451E+01   5.651451E+01   5.651451E+01   5.651451E+01   5.651451E+01   5.797717E+01   5.797717E+01   5.797717E+01   5.797717E+01   5.797717E+01   9.531613E+01   9.531613E+01   9.531613E+01   9.531613E+01   9.531613E+01   9.531613E+01   9.531613E+01   2.176322E+01   2.176322E+01   2.176322E+01   2.176322E+01   2.176322E+01   2.176322E+01   2.176322E+01   2.176322E+01   2.176322E+01   2.176322E+01   9.545615E+01   9.545615E+01   9.545615E+01   9.545615E+01   9.545615E+01   9.545615E+01   9.545615E+01   9.545615E+01   9.545615E+01   3.555261E+01   3.555261E+01   3.555261E+01   3.555261E+01   3.555261E+01   3.555261E+01   3.555261E+01   2.675112E+01   2.675112E+01   2.675112E+01   2.675112E+01   2.675112E+01   6.080774E+01   6.080774E+01   6.080774E+01   6.080774E+01   3.719517E+01   3.719517E+01   3.719517E+01   9.349052E+01   9.349052E+01   7.061969E+01   7.061969E+01   1.005486E+02   1.005486E+02   4.807374E+01   4.200367E+01   4.526921E+01   4.526921E+01   1.958469E+01   1.054561E+01   1.511739E+01   1.382118E+01   2.431822E+01   2.629580E+01   4.721359E+01   4.205289E+01   5.747960E+01   6.231054E+01   5.062363E+01   3.265426E+01   3.074948E+01   1.107962E+01   1.470138E+01   2.266394E+01   4.670251E+01   9.743398E+01   5.440548E+01   8.679224E+01   3.290233E+01   3.630963E+01   5.082934E+01   8.423230E+01   1.021674E+02   7.007922E+01   7.658134E+01   3.072229E+01   9.815852E+01   4.444662E+01   4.152399E+01   4.787595E+01   4.234141E+01   5.715015E+01   8.967671E+01   3.041806E+01   1.194663E+02   7.180515E+01   1.723255E+01
   1.245714E+01   7.602448E+00   2.178441E+01   2.597691E+01   4.936118E+01   1.171360E+02   9.199612E+01   5.929360E+01   9.197208E+01   5.667883E+01   2.720343E+01   1.261550E+01   3.509471E+01   9.014309E+00   1.010280E+01   1.880417E+01   3.173423E+01   6.174947E+01   1.598661E+02   7.503184E+01   5.993080E+01   6.340094E+01   4.212913E+01   3.625465E+01   7.082206E+01   3.911631E+01   1.071837E+02   6.986935E+01   1.662544E+01   1.186964E+01   7.210878E+01   6.367107E+01   8.453844E+01   2.550570E+02   4.424946E+01   7.739726E+01   5.370327E+01   7.177836E+01   3.075288E+01   2.700005E+01   2.815743E+01   5.011406E+01   2.287681E+01   3.399893E+01   2.157941E+01   3.670604E+01   6.482491E+01   3.645612E+01   2.252671E+01   2.263333E+01   3.157844E+01   1.337081E+02   3.624887E+01   7.314093E+01   8.824525E+01   1.349938E+02   1.858804E+02   7.970905E+01   3.399549E+01   4.890390E+01   2.686163E+01   2.716974E+01   1.660420E+01   1.596984E+01   5.617157E+01   5.204202E+01   5.858432E+01   9.682256E+01   2.674757E+01   7.891262E+01   3.671788E+01   1.739965E+01   4.548770E+01   2.757141E+01   5.726673E+01   1.381311E+02   3.062259E+02   2.506941E+02   2.898470E+02   4.134644E+01   1.853244E+01   1.932330E+01   1.004129E+02   7.752814E+01   8.469711E+01   9.901005E+01   9.239538E+01   7.986991E+01   1.101457E+02   1.376330E+02   1.376330E+02   2.131134E+02   1.725469E+02   1.725469E+02   4.640589E+01   9.144818E+01   9.144818E+01   8.922182E+01   8.922182E+01   8.922182E+01   4.797121E+01   4.797121E+01   4.797121E+01   5.427346E+01   5.427346E+01   5.427346E+01   5.427346E+01   5.427346E+01   6.388295E+01   6.388295E+01   6.388295E+01   6.388295E+01   6.388295E+01   1.272355E+02   1.272355E+02   1.272355E+02   1.272355E+02   1.272355E+02   1.272355E+02   1.272355E+02   3.868030E+01   3.868030E+01   3.868030E+01   3.868030E+01   3.868030E+01   3.868030E+01   3.868030E+01   3.868030E+01   3.868030E+01   3.868030E+01   6.254690E+01   6.254690E+01   6.254690E+01   6.254690E+01   6.254690E+01   6.254690E+01   6.254690E+01   6.254690E+01   6.254690E+01   2.202020E+01   2.202020E+01   2.202020E+01   2.202020E+01   2.202020E+01   2.202020E+01   2.202020E+01   6.735901E+01   6.735901E+01   6.735901E+01   6.735901E+01   6.735901E+01   1.406476E+02   1.406476E+02   1.406476E+02   1.406476E+02   6.174877E+01   6.174877E+01   6.174877E+01   6.273759E+01   6.273759E+01   1.198571E+02   1.198571E+02   9.938179E+01   9.938179E+01   9.580026E+01   4.400485E+01   1.116157E+01   1.116157E+01   1.554100E+01   3.524348E+00   5.576387E+00   1.345039E+01   1.625328E+01   2.192398E+01   8.039561E+01   2.524985E+01   5.414449E+01   2.519983E+01   2.351213E+01   2.452835E+01   1.983836E+01   1.280157E+01   1.347807E+01   2.740944E+01   4.629537E+01   6.765477E+01   5.089921E+01   3.368006E+01   5.991968E+01   2.343374E+01   5.658907E+01   7.638671E+01   6.399397E+01   9.619309E+01   4.559375E+01   1.668286E+01   5.027355E+01   3.133481E+01   6.726263E+01   6.245973E+01   6.511521E+01   7.166342E+01   6.153393E+01   7.574201E+01   6.482655E+01   8.326785E+01   4.592418E+01
   1.302202E+01   8.148458E+00   1.475891E+01   1.922376E+01   7.192958E+01   1.253665E+02   1.076045E+02   7.290074E+01   5.749596E+01   5.719679E+01   2.448664E+01   4.538692E+01   2.843389E+01   9.510228E+00   2.167000E+01   2.250010E+01   4.269379E+01   1.316932E+02   8.015601E+01   9.932100E+01   8.030490E+01   7.740782E+01   1.727862E+01   4.028408E+01   1.140196E+02   2.094321E+02   3.361266E+02   9.774737E+01   2.127674E+01   2.826109E+01   3.149306E+01   3.856144E+01   4.899076E+01   1.484248E+02   5.788015E+01   6.388260E+01   4.074132E+01   2.029317E+01   3.679511E+01   5.357016E+01   2.376774E+01   4.022569E+01   3.557606E+01   1.055126E+02   5.163171E+01   9.891131E+01   8.149468E+01   1.178947E+02   2.718993E+01   3.883010E+01   6.499184E+01   1.092695E+02   6.536353E+01   1.028541E+02   1.826542E+02   1.359948E+02   7.846391E+01   4.914413E+01   6.998279E+01   4.526808E+01   2.619191E+01   4.668192E+01   1.788478E+01   1.348168E+01   5.961240E+01   4.111278E+01   3.275967E+01   6.660896E+01   2.437575E+01   3.367921E+01   4.051704E+01   1.542103E+01   3.621795E+01   2.776313E+01   5.121591E+01   1.366232E+02   5.326168E+02   2.658029E+02   2.365027E+02   8.906951E+01   2.520621E+01   3.986547E+01   2.037760E+02   2.740676E+02   3.290984E+02   9.081734E+01   4.468479E+01   6.328638E+01   6.177384E+01   1.376502E+02   1.376502E+02   8.691784E+01   2.380556E+01   2.380556E+01   2.642801E+01   4.035526E+01   4.035526E+01   3.234886E+01   3.234886E+01   3.234886E+01   4.022586E+01   4.022586E+01   4.022586E+01   3.996961E+01   3.996961E+01   3.996961E+01   3.996961E+01   3.996961E+01   4.821106E+01   4.821106E+01   4.821106E+01   4.821106E+01   4.821106E+01   1.699965E+02   1.699965E+02   1.699965E+02   1.699965E+02   1.699965E+02   1.699965E+02   1.699965E+02   2.099091E+01   2.099091E+01   2.099091E+01   2.099091E+01   2.099091E+01   2.099091E+01   2.099091E+01   2.099091E+01   2.099091E+01   2.099091E+01   4.726392E+01   4.726392E+01   4.726392E+01   4.726392E+01   4.726392E+01   4.726392E+01   4.726392E+01   4.726392E+01   4.726392E+01   5.302382E+01   5.302382E+01   5.302382E+01   5.302382E+01   5.302382E+01   5.302382E+01   5.302382E+01   7.300043E+01   7.300043E+01   7.300043E+01   7.300043E+01   7.300043E+01   2.855907E+02   2.855907E+02   2.855907E+02   2.855907E+02   6.754324E+01   6.754324E+01   6.754324E+01   1.566159E+02   1.566159E+02   2.243175E+02   2.243175E+02   1.180814E+02   1.180814E+02   1.006457E+02   3.193808E+01   5.901788E+00   5.901788E+00   7.562591E+00   5.959773E+00   5.665324E+00   1.410633E+01   2.532448E+01   2.624014E+01   1.440125E+02   4.044472E+01   4.823022E+01   2.149205E+01   2.928621E+01   1.430584E+01   6.039367E+00   4.048934E+00   1.021304E+01   5.318241E+01   4.054038E+01   8.509623E+01   5.641603E+01   3.772143E+01   5.693269E+01   2.697302E+01   4.180886E+01   5.248516E+01   7.446748E+01   1.319983E+02   3.029938E+01   2.432038E+01   6.189280E+01   4.754364E+01   5.567843E+01   6.227414E+01   8.039336E+01   3.938025E+01   6.486341E+01   1.064588E+02   4.696767E+01   1.277821E+02   8.872711E+01
   1.500711E+01   1.871015E+01   1.565412E+01   3.152205E+01   1.090698E+02   7.348233E+01   1.319450E+02   4.689906E+01   5.110043E+01   4.825367E+01   1.625425E+01   3.690649E+01   3.395052E+01   2.762655E+01   1.797172E+01   1.584462E+01   6.562015E+01   8.743001E+01   6.197968E+01   1.249347E+02   5.889885E+01   7.251678E+01   5.241531E+01   3.194583E+01   1.098811E+02   2.215591E+02   2.026179E+02   7.141817E+01   2.945975E+01   3.173526E+01   2.960169E+01   3.889465E+01   6.528073E+01   4.671740E+01   5.192223E+01   4.995160E+01   4.790723E+01   2.484877E+01   3.830911E+01   1.281543E+02   2.376035E+01   5.296136E+01   2.918852E+01   7.176301E+01   7.147810E+01   1.220538E+02   1.448495E+02   9.297784E+01   7.633578E+01   4.473750E+01   8.626743E+01   7.030754E+01   4.989005E+01   7.709843E+01   7.894162E+01   6.004421E+01   4.149831E+01   5.005511E+01   2.747109E+01   3.591224E+01   2.084746E+01   4.286020E+01   1.605607E+01   1.447877E+01   1.739115E+01   1.296363E+01   1.405703E+01   2.965409E+01   2.211453E+01   3.132465E+01   6.254315E+01   3.614690E+01   2.093496E+01   2.609750E+01   5.631006E+01   1.078368E+02   3.102682E+02   3.784492E+02   2.774677E+02   1.325889E+02   2.910051E+01   6.453709E+01   2.606638E+02   4.133137E+02   4.725587E+02   5.866217E+01   9.784516E+01   3.904254E+01   4.476221E+01   9.702948E+01   9.702948E+01   1.098772E+02   3.008702E+01   3.008702E+01   2.311611E+01   3.119287E+01   3.119287E+01   3.335546E+01   3.335546E+01   3.335546E+01   3.536526E+01   3.536526E+01   3.536526E+01   2.450934E+01   2.450934E+01   2.450934E+01   2.450934E+01   2.450934E+01   2.788032E+01   2.788032E+01   2.788032E+01   2.788032E+01   2.788032E+01   5.874930E+01   5.874930E+01   5.874930E+01   5.874930E+01   5.874930E+01   5.874930E+01   5.874930E+01   4.433952E+01   4.433952E+01   4.433952E+01   4.433952E+01   4.433952E+01   4.433952E+01   4.433952E+01   4.433952E+01   4.433952E+01   4.433952E+01   3.906699E+01   3.906699E+01   3.906699E+01   3.906699E+01   3.906699E+01   3.906699E+01   3.906699E+01   3.906699E+01   3.906699E+01   4.079283E+01   4.079283E+01   4.079283E+01   4.079283E+01   4.079283E+01   4.079283E+01   4.079283E+01   3.879374E+01   3.879374E+01   3.879374E+01   3.879374E+01   3.879374E+01   3.701270E+02   3.701270E+02   3.701270E+02   3.701270E+02   4.303506E+01   4.303506E+01   4.303506E+01   8.482365E+01   8.482365E+01   1.104399E+02   1.104399E+02   1.183474E+02   1.183474E+02   4.175979E+01   1.784602E+01   6.677205E+00   6.677205E+00   1.085011E+01   9.395290E+00   1.749133E+01   2.336676E+01   4.980098E+01   3.478204E+01   2.442797E+01   2.697986E+01   3.662992E+01   1.695522E+01   1.929226E+01   1.644305E+01   8.090974E+00   4.112075E+00   9.323972E+00   1.729536E+01   1.896754E+01   6.438648E+01   6.342361E+01   5.857821E+01   4.376751E+01   8.454063E+01   3.898487E+01   6.705387E+01   5.681323E+01   8.773750E+01   2.613315E+01   2.132006E+01   7.169822E+01   5.497189E+01   3.887363E+01   1.326662E+02   8.160768E+01   4.783158E+01   6.025467E+01   6.476987E+01   8.404736E+01   6.697213E+01   9.426441E+01
   1.223167E+01   8.903473E+00   1.015490E+01   3.626748E+01   6.236548E+01   1.677127E+02   1.103820E+02   4.452667E+01   4.769305E+01   4.295979E+01   2.036831E+01   4.720122E+01   1.130577E+02   8.347898E+01   3.515185E+01   1.718970E+01   2.767922E+01   4.392699E+01   2.775318E+01   6.463309E+01   2.123989E+01   6.373771E+01   3.805160E+01   2.822388E+01   1.216866E+02   1.805286E+02   1.047318E+02   7.759765E+01   3.622345E+01   3.129460E+01   3.670038E+01   3.269986E+01   4.480616E+01   8.051066E+01   6.685596E+01   5.906989E+01   9.140964E+01   7.650889E+01   4.382364E+01   5.020929E+01   3.611780E+01   5.696182E+01   3.527470E+01   1.070156E+02   1.335687E+02   2.789066E+02   3.770923E+02   1.776432E+02   9.750066E+01   8.119629E+01   4.923051E+01   6.908659E+01   1.079082E+02   1.149627E+02   3.233193E+01   3.275070E+01   2.396273E+01   8.534912E+01   4.817319E+01   6.671156E+01   1.607111E+01   4.214648E+01   1.773739E+01   1.012960E+01   1.559390E+01   9.105330E+00   3.086246E+01   3.393465E+01   2.324828E+01   2.874572E+01   4.772702E+01   4.776492E+01   3.783013E+01   3.979244E+01   5.835398E+01   1.527347E+02   9.686011E+02   7.470753E+02   2.315760E+02   4.788016E+01   2.744683E+01   1.104757E+02   1.506522E+02   1.551338E+02   1.549742E+02   1.158863E+02   1.311708E+02   5.961336E+01   6.513795E+01   7.038500E+01   7.038500E+01   8.954890E+01   1.057282E+02   1.057282E+02   2.948712E+01   4.141600E+01   4.141600E+01   1.897434E+01   1.897434E+01   1.897434E+01   2.556435E+01   2.556435E+01   2.556435E+01   3.609692E+01   3.609692E+01   3.609692E+01   3.609692E+01   3.609692E+01   4.510513E+01   4.510513E+01   4.510513E+01   4.510513E+01   4.510513E+01   1.983311E+01   1.983311E+01   1.983311E+01   1.983311E+01   1.983311E+01   1.983311E+01   1.983311E+01   2.395028E+01   2.395028E+01   2.395028E+01   2.395028E+01   2.395028E+01   2.395028E+01   2.395028E+01   2.395028E+01   2.395028E+01   2.395028E+01   3.425060E+01   3.425060E+01   3.425060E+01   3.425060E+01   3.425060E+01   3.425060E+01   3.425060E+01   3.425060E+01   3.425060E+01   2.625172E+01   2.625172E+01   2.625172E+01   2.625172E+01   2.625172E+01   2.625172E+01   2.625172E+01   3.765379E+01   3.765379E+01   3.765379E+01   3.765379E+01   3.765379E+01   1.457205E+02   1.457205E+02   1.457205E+02   1.457205E+02   4.937253E+01   4.937253E+01   4.937253E+01   3.799866E+01   3.799866E+01   7.523055E+01   7.523055E+01   1.083654E+02   1.083654E+02   7.396829E+01   1.766779E+01   3.186787E+01   3.186787E+01   2.884297E+01   1.711165E+01   4.296628E+01   3.982032E+01   6.354907E+01   4.742629E+01   2.834691E+01   1.985160E+01   2.806663E+01   1.776600E+01   9.590339E+00   6.707448E+00   3.855242E+00   8.946644E+00   1.191687E+01   1.668486E+01   1.450192E+01   4.063766E+01   3.331015E+01   6.775916E+01   4.476176E+01   9.209572E+01   7.937931E+01   6.082046E+01   3.615974E+01   4.036371E+01   3.372770E+01   4.444896E+01   2.837782E+01   4.723544E+01   4.188432E+01   8.163543E+01   9.495091E+01   8.206077E+01   3.367961E+01   3.379475E+01   4.058461E+01   5.802513E+01   1.335281E+02
   1.548038E+01   9.196292E+00   1.141567E+01   2.280715E+01   7.026395E+01   1.786875E+02   8.583214E+01   8.189167E+01   3.275625E+01   2.390481E+01   1.617994E+01   1.645919E+01   6.421860E+01   5.678229E+01   2.865698E+01   2.382860E+01   3.165445E+01   2.827914E+01   1.679241E+01   3.787337E+01   5.655837E+01   5.158867E+01   5.971177E+01   3.214603E+01   1.693516E+02   1.334182E+02   4.236773E+01   4.804995E+01   5.477578E+01   4.675712E+01   2.688487E+01   1.211452E+01   3.727457E+01   6.765228E+01   6.804840E+01   4.824061E+01   7.453529E+01   8.855090E+01   6.108847E+01   4.189405E+01   8.175120E+01   4.783054E+01   5.131692E+01   5.206719E+01   1.640288E+02   2.397660E+02   1.590392E+02   1.629513E+02   1.877788E+02   1.325206E+02   5.249134E+01   7.134727E+01   9.052897E+01   4.470054E+01   5.952274E+01   4.136740E+01   4.018319E+01   1.259319E+02   5.835541E+01   1.654556E+01   3.447410E+01   4.145206E+01   1.591872E+01   1.445495E+01   1.239159E+01   1.986422E+01   1.749796E+01   3.645408E+01   2.363002E+01   3.570346E+01   6.050011E+01   4.331382E+01   3.065853E+01   5.100425E+01   5.000941E+01   1.429089E+02   2.789854E+02   2.786080E+02   1.320431E+02   5.607972E+01   5.608990E+01   6.743402E+01   1.609680E+02   1.076884E+02   1.027430E+02   1.928058E+02   2.671511E+02   1.111869E+02   5.580795E+01   9.921169E+01   9.921169E+01   7.273997E+01   7.174821E+01   7.174821E+01   4.280857E+01   1.882961E+02   1.882961E+02   2.498137E+01   2.498137E+01   2.498137E+01   4.294393E+01   4.294393E+01   4.294393E+01   4.880457E+01   4.880457E+01   4.880457E+01   4.880457E+01   4.880457E+01   3.998504E+01   3.998504E+01   3.998504E+01   3.998504E+01   3.998504E+01   1.864585E+01   1.864585E+01   1.864585E+01   1.864585E+01   1.864585E+01   1.864585E+01   1.864585E+01   1.675782E+01   1.675782E+01   1.675782E+01   1.675782E+01   1.675782E+01   1.675782E+01   1.675782E+01   1.675782E+01   1.675782E+01   1.675782E+01   2.745895E+01   2.745895E+01   2.745895E+01   2.745895E+01   2.745895E+01   2.745895E+01   2.745895E+01   2.745895E+01   2.745895E+01   1.618618E+01   1.618618E+01   1.618618E+01   1.618618E+01   1.618618E+01   1.618618E+01   1.618618E+01   4.263910E+01   4.263910E+01   4.263910E+01   4.263910E+01   4.263910E+01   7.923347E+01   7.923347E+01   7.923347E+01   7.923347E+01   1.038516E+02   1.038516E+02   1.038516E+02   4.092475E+01   4.092475E+01   8.549740E+01   8.549740E+01   2.105491E+02   2.105491E+02   8.965668E+01   2.720935E+01   3.536063E+01   3.536063E+01   5.627013E+01   8.461034E+01   4.972972E+01   6.108187E+01   8.488156E+01   6.438577E+01   5.450254E+01   1.372320E+01   1.756422E+01   9.047988E+00   8.421640E+00   8.307421E+00   3.156793E+00   1.542976E+01   1.423455E+01   9.855568E+00   4.079207E+01   4.067923E+01   3.799480E+01   8.085973E+01   8.156998E+01   6.930428E+01   7.040879E+01   4.480919E+01   1.474318E+01   1.716503E+01   3.079463E+01   4.457956E+01   2.396232E+01   4.810182E+01   4.271715E+01   2.882307E+01   2.826019E+01   1.807305E+01   2.963844E+01   1.461981E+01   2.141704E+01   5.087547E+01   2.665236E+02