# LPF package for  MODFLOW-2005, generated by Flopy.
        53    -1E+30         0  
         1
         0
   0.000000E+00
         0
         0
INTERNAL               1 (207E15.6) -1 #hk layer 1                    
   2.861262E-02   1.292093E-02   1.517846E-02   3.164888E-02   1.240252E-01   8.888748E-02   7.904650E-02   6.161023E-02   3.171903E-02   3.087875E-02   2.588487E-02   4.042072E-02   3.220218E-02   2.314267E-02   4.171050E-02   3.445543E-02   4.014012E-02   5.104402E-02   6.800329E-02   5.076452E-02   6.533288E-02   5.291719E-02   9.329528E-02   1.010724E-01   1.099920E-01   4.777031E-02   1.042392E-01   1.957945E-01   3.057951E-01   1.861927E-01   4.935317E-02   5.602243E-02   8.895684E-02   5.273309E-02   4.049642E-02   5.994150E-02   4.697112E-02   3.050243E-02   7.480745E-02   1.352480E-01   2.228196E-02   6.614708E-02   3.740652E-02   1.683865E-02   8.231416E-02   9.932891E-02   9.645400E-02   1.124991E-01   1.644931E-01   1.414380E-01   1.316848E-01   2.000184E-01   1.507554E-01   1.509877E-01   8.009643E-02   1.359280E-01   1.474386E-01   2.705306E-01   1.868591E-01   4.403281E-01   7.242535E-01   2.518392E-01   1.094038E-01   2.537226E-02   1.647359E-02   2.666965E-02   9.265089E-02   7.324886E-02   3.412327E-01   1.207929E-01   1.187040E-01   9.242865E-02   2.630249E-01   1.417798E-01   1.949137E-01   1.568218E-01   3.744049E-02   1.157224E-01   6.065918E-02   6.895849E-02   5.409569E-02   1.905497E-02   5.674734E-03   1.374780E-02   4.034507E-02   6.254698E-02   5.043976E-02   4.753035E-02   4.817685E-02   2.501264E-02   2.501264E-02   2.620245E-02   2.615842E-02   2.615842E-02   1.204585E-01   2.429416E-01   2.429416E-01   1.198165E-01   1.198165E-01   1.198165E-01   1.349121E-01   1.349121E-01   1.349121E-01   6.383620E-02   6.383620E-02   6.383620E-02   6.383620E-02   6.383620E-02   7.676610E-02   7.676610E-02   7.676610E-02   7.676610E-02   7.676610E-02   2.706765E-01   2.706765E-01   2.706765E-01   2.706765E-01   2.706765E-01   2.706765E-01   2.706765E-01   3.332695E-01   3.332695E-01   3.332695E-01   3.332695E-01   3.332695E-01   3.332695E-01   3.332695E-01   3.332695E-01   3.332695E-01   3.332695E-01   2.810069E-01   2.810069E-01   2.810069E-01   2.810069E-01   2.810069E-01   2.810069E-01   2.810069E-01   2.810069E-01   2.810069E-01   1.579915E-01   1.579915E-01   1.579915E-01   1.579915E-01   1.579915E-01   1.579915E-01   1.579915E-01   7.181563E-02   7.181563E-02   7.181563E-02   7.181563E-02   7.181563E-02   5.464774E-02   5.464774E-02   5.464774E-02   5.464774E-02   1.140181E-01   1.140181E-01   1.140181E-01   1.784265E-01   1.784265E-01   4.091538E-02   4.091538E-02   4.699084E-02   4.699084E-02   5.274967E-02   3.826710E-02   3.953762E-02   3.953762E-02   1.760558E-02   6.481056E-02   3.995729E-02   5.107186E-02   4.252599E-02   5.574058E-02   2.623117E-02   2.783455E-02   1.585276E-02   2.215105E-02   1.093244E-01   1.091286E-01   6.064846E-02   4.872297E-02   1.889974E-01   4.269283E-02   7.040577E-02   1.429908E-01   7.226887E-02   2.217726E-01   9.350185E-01   3.615595E-01   1.663705E-01   3.659102E-02   2.364024E-02   2.678677E-02   1.347132E-02   4.341617E-03   5.593489E-03   1.479974E-02   2.196958E-02   8.803086E-02   1.021544E-01   5.336827E-02   2.511756E-02   4.340614E-02   4.474920E-02   1.083930E-02   1.229530E-02
   2.526335E-02   1.043889E-02   3.314786E-02   5.578159E-02   8.436366E-02   4.555813E-02   2.680087E-02   1.879886E-02   1.590204E-02   2.591061E-02   3.404888E-02   5.902665E-02   2.923567E-02   2.428221E-02   4.003733E-02   3.464031E-02   6.719720E-02   3.754785E-02   7.392366E-02   8.005851E-02   5.141534E-02   1.061747E-01   1.968799E-01   1.856518E-01   7.821774E-02   7.385806E-02   9.772543E-02   8.282485E-02   1.709224E-01   1.493406E-01   7.761060E-02   3.142526E-02   7.686387E-02   5.537317E-02   5.197864E-02   7.181751E-02   3.767324E-02   5.284829E-02   5.462735E-02   1.468869E-01   3.484042E-02   4.774994E-02   2.788085E-02   1.032228E-01   1.067489E-01   6.975251E-02   9.673727E-02   5.650174E-02   1.293287E-01   7.861119E-02   3.798609E-02   8.581643E-02   6.532042E-02   1.279896E-01   1.162848E-01   1.271636E-01   2.639345E-01   3.075628E-01   4.100692E-01   3.540986E-01   4.186120E-01   2.963449E-01   1.269660E-01   8.266786E-02   1.484628E-02   2.909161E-02   8.813921E-02   5.662590E-02   1.682165E-01   1.223753E-01   9.741731E-02   8.111024E-02   1.889828E-01   1.799673E-01   1.352715E-01   1.092693E-01   7.281628E-02   5.184680E-02   4.215545E-02   3.075521E-02   2.507159E-02   1.303387E-02   6.251249E-03   1.581118E-02   2.779470E-02   1.156174E-01   5.407284E-02   3.681987E-02   5.819667E-02   3.018122E-02   3.018122E-02   3.892051E-02   4.653592E-02   4.653592E-02   2.693351E-01   2.758891E-01   2.758891E-01   8.767603E-02   8.767603E-02   8.767603E-02   8.882719E-02   8.882719E-02   8.882719E-02   6.574179E-02   6.574179E-02   6.574179E-02   6.574179E-02   6.574179E-02   5.363898E-02   5.363898E-02   5.363898E-02   5.363898E-02   5.363898E-02   1.095118E-01   1.095118E-01   1.095118E-01   1.095118E-01   1.095118E-01   1.095118E-01   1.095118E-01   2.454389E-01   2.454389E-01   2.454389E-01   2.454389E-01   2.454389E-01   2.454389E-01   2.454389E-01   2.454389E-01   2.454389E-01   2.454389E-01   1.766843E-01   1.766843E-01   1.766843E-01   1.766843E-01   1.766843E-01   1.766843E-01   1.766843E-01   1.766843E-01   1.766843E-01   1.856635E-01   1.856635E-01   1.856635E-01   1.856635E-01   1.856635E-01   1.856635E-01   1.856635E-01   1.995236E-02   1.995236E-02   1.995236E-02   1.995236E-02   1.995236E-02   3.577550E-02   3.577550E-02   3.577550E-02   3.577550E-02   1.465740E-01   1.465740E-01   1.465740E-01   2.063448E-01   2.063448E-01   6.284212E-02   6.284212E-02   3.501789E-02   3.501789E-02   4.708710E-02   2.352468E-02   2.517132E-02   2.517132E-02   2.043360E-02   4.328416E-02   4.418590E-02   1.464463E-02   1.274791E-02   9.295690E-02   3.090958E-02   4.150913E-02   2.385177E-02   3.604514E-02   6.872797E-02   5.212333E-02   5.613884E-02   6.554991E-02   1.120993E-01   7.658949E-02   7.327905E-02   2.042916E-01   1.071969E-01   1.558397E-01   5.323188E-01   6.902989E-01   2.290344E-01   8.455227E-02   2.590065E-02   1.528976E-02   1.413090E-02   1.019870E-02   1.279763E-02   2.857331E-02   5.428739E-02   1.875059E-01   1.525995E-01   3.871087E-02   2.957178E-02   4.999690E-02   9.601384E-02   1.041762E-02   1.216277E-02
   1.598749E-02   1.385874E-02   2.176149E-02   7.937451E-02   5.941830E-02   6.006289E-02   3.455044E-02   7.526935E-03   7.491725E-03   2.135012E-02   3.557043E-02   2.505670E-02   3.073365E-02   1.680599E-02   1.734480E-02   1.345654E-02   5.187361E-02   6.897548E-02   8.988071E-02   6.916030E-02   3.905885E-02   5.524049E-02   1.294549E-01   1.326597E-01   5.395309E-02   6.984860E-02   9.831953E-02   6.729989E-02   9.380799E-02   1.462262E-01   6.706379E-02   4.150466E-02   4.723937E-02   8.373486E-02   4.548472E-02   5.293315E-02   5.188126E-02   5.459166E-02   5.756809E-02   5.396303E-02   6.367594E-02   5.985762E-02   3.409078E-02   1.085169E-01   1.870430E-01   7.491682E-02   5.919047E-02   1.163645E-01   1.843116E-01   4.910212E-02   1.597088E-02   5.753024E-02   6.575555E-02   9.037830E-02   1.611203E-01   1.528798E-01   4.311041E-01   3.269337E-01   3.236314E-01   4.720664E-01   2.736292E-01   2.018827E-01   5.965536E-02   6.505800E-02   3.398315E-02   8.258965E-02   1.657550E-01   7.739667E-02   1.690057E-01   1.430500E-01   1.457020E-01   2.629263E-01   8.001810E-02   1.699507E-01   7.814573E-02   1.729892E-01   7.081974E-02   3.336691E-02   3.557740E-02   6.710879E-02   4.029624E-02   2.620590E-02   1.765421E-02   6.824556E-02   7.515477E-02   1.595374E-01   4.014780E-02   5.807930E-02   5.964402E-02   3.287796E-02   3.287796E-02   7.034836E-02   3.985145E-02   3.985145E-02   2.265201E-01   2.780621E-01   2.780621E-01   1.435125E-01   1.435125E-01   1.435125E-01   6.209772E-02   6.209772E-02   6.209772E-02   4.608598E-02   4.608598E-02   4.608598E-02   4.608598E-02   4.608598E-02   4.434944E-02   4.434944E-02   4.434944E-02   4.434944E-02   4.434944E-02   4.456968E-02   4.456968E-02   4.456968E-02   4.456968E-02   4.456968E-02   4.456968E-02   4.456968E-02   2.846708E-01   2.846708E-01   2.846708E-01   2.846708E-01   2.846708E-01   2.846708E-01   2.846708E-01   2.846708E-01   2.846708E-01   2.846708E-01   3.543150E-01   3.543150E-01   3.543150E-01   3.543150E-01   3.543150E-01   3.543150E-01   3.543150E-01   3.543150E-01   3.543150E-01   1.243446E-01   1.243446E-01   1.243446E-01   1.243446E-01   1.243446E-01   1.243446E-01   1.243446E-01   3.357878E-02   3.357878E-02   3.357878E-02   3.357878E-02   3.357878E-02   4.855128E-02   4.855128E-02   4.855128E-02   4.855128E-02   7.769354E-02   7.769354E-02   7.769354E-02   1.124953E-01   1.124953E-01   1.302549E-01   1.302549E-01   4.312929E-02   4.312929E-02   4.233356E-02   3.413820E-02   4.007064E-02   4.007064E-02   2.864825E-02   7.100057E-02   4.443493E-02   2.022127E-02   1.463547E-02   1.856374E-02   1.627747E-02   3.179698E-02   1.855388E-02   4.628282E-02   1.509243E-01   5.584960E-02   1.501819E-01   1.365731E-01   1.548328E-01   7.142710E-02   8.788034E-02   1.466532E-01   1.450066E-01   1.074842E-01   2.639993E-01   2.444957E-01   1.380035E-01   5.027788E-02   3.182220E-02   1.710760E-02   1.384747E-02   2.155232E-02   1.541369E-02   3.920829E-02   7.932550E-02   1.620216E-01   1.728082E-01   5.169249E-02   2.807009E-02   3.050275E-02   3.919165E-02   1.249794E-02   2.301300E-02
   2.434531E-02   1.598014E-02   5.446288E-02   8.304824E-02   5.030816E-02   3.448248E-02   3.166754E-02   6.227666E-03   2.830926E-02   4.518447E-02   9.690591E-02   4.820206E-02   2.460079E-02   2.886718E-02   1.912359E-02   1.441179E-02   4.794271E-02   1.072804E-01   1.674119E-01   1.251061E-01   3.131589E-02   4.384965E-02   7.132453E-02   6.075117E-02   1.087291E-01   7.403837E-02   3.920823E-02   8.408701E-02   5.004328E-02   3.471386E-02   2.296551E-02   2.555458E-02   3.026632E-02   4.833027E-02   6.202265E-02   8.894473E-02   5.457617E-02   4.313853E-02   5.774564E-02   4.789076E-02   7.148388E-02   8.693997E-02   6.511231E-02   9.776904E-02   7.437366E-02   6.922340E-02   8.772512E-02   1.135809E-01   1.174149E-01   4.194538E-02   1.129119E-02   2.333496E-02   3.810991E-02   1.370711E-01   1.074433E-01   9.440272E-02   2.450572E-01   2.201468E-01   4.403776E-01   4.657654E-01   2.532499E-01   2.727721E-01   4.984441E-02   2.946142E-02   3.858899E-02   3.511040E-02   8.466996E-02   5.973943E-02   1.193029E-01   1.216702E-01   2.137007E-01   1.961712E-01   3.929335E-02   1.747011E-01   1.011687E-01   8.756087E-02   6.598231E-02   1.531173E-02   1.227530E-02   4.129787E-02   6.765731E-02   1.524617E-02   1.558401E-02   4.046111E-02   5.478996E-02   6.235760E-02   8.603755E-02   9.033751E-02   6.050626E-02   4.131527E-02   4.131527E-02   3.545460E-02   4.496805E-02   4.496805E-02   1.620508E-01   1.319158E-01   1.319158E-01   9.694123E-02   9.694123E-02   9.694123E-02   4.663340E-02   4.663340E-02   4.663340E-02   3.648950E-02   3.648950E-02   3.648950E-02   3.648950E-02   3.648950E-02   2.977008E-02   2.977008E-02   2.977008E-02   2.977008E-02   2.977008E-02   8.617014E-02   8.617014E-02   8.617014E-02   8.617014E-02   8.617014E-02   8.617014E-02   8.617014E-02   1.192013E-01   1.192013E-01   1.192013E-01   1.192013E-01   1.192013E-01   1.192013E-01   1.192013E-01   1.192013E-01   1.192013E-01   1.192013E-01   9.692314E-02   9.692314E-02   9.692314E-02   9.692314E-02   9.692314E-02   9.692314E-02   9.692314E-02   9.692314E-02   9.692314E-02   1.023065E-01   1.023065E-01   1.023065E-01   1.023065E-01   1.023065E-01   1.023065E-01   1.023065E-01   2.840266E-02   2.840266E-02   2.840266E-02   2.840266E-02   2.840266E-02   2.163363E-02   2.163363E-02   2.163363E-02   2.163363E-02   3.932491E-02   3.932491E-02   3.932491E-02   2.085122E-01   2.085122E-01   1.226579E-01   1.226579E-01   3.357695E-02   3.357695E-02   2.407623E-02   6.250998E-02   4.663223E-02   4.663223E-02   3.371242E-02   5.200648E-02   2.012591E-02   4.143538E-02   3.816030E-02   1.377384E-02   3.704828E-02   4.554447E-02   1.634439E-02   1.088506E-01   1.290998E-01   8.128582E-02   3.896866E-01   2.297854E-01   1.182352E-01   6.017394E-02   1.428056E-01   1.327112E-01   1.009925E-01   1.276100E-01   1.496834E-01   5.143986E-01   7.982405E-02   4.036242E-02   2.008736E-02   1.296018E-02   2.337185E-02   2.558024E-02   3.453549E-02   4.045880E-02   7.390128E-02   1.742356E-01   3.660770E-02   7.368181E-02   3.542430E-02   2.125159E-02   3.596313E-02   5.087707E-02   3.458207E-02
   2.678129E-02   2.790334E-02   4.890502E-02   8.745837E-02   9.102807E-02   5.087670E-02   4.308989E-02   1.625078E-02   3.621366E-02   4.620363E-02   6.538542E-02   2.808032E-02   2.314603E-02   1.814093E-02   1.637024E-02   1.741423E-02   3.206693E-02   8.704387E-02   1.235560E-01   3.719349E-02   2.810612E-02   2.482020E-02   6.406274E-02   9.811254E-02   2.850571E-01   1.344120E-01   4.315454E-02   7.204638E-02   4.823450E-02   1.567338E-02   2.695006E-02   2.056231E-02   2.678260E-02   1.548180E-02   7.039504E-02   8.006261E-02   1.286217E-01   7.261265E-02   7.170679E-02   5.343543E-02   1.008388E-01   5.578772E-02   5.038800E-02   7.138009E-02   5.641930E-02   6.489611E-02   3.863417E-02   6.797451E-02   1.027246E-01   3.536411E-02   6.257119E-03   2.464193E-02   4.871308E-02   1.380306E-01   9.438208E-02   9.766484E-02   1.344209E-01   1.746295E-01   2.985176E-01   2.789889E-01   1.732934E-01   2.470226E-01   3.049591E-02   2.768430E-02   6.595746E-02   3.148830E-02   8.229776E-02   1.034747E-01   2.600015E-01   2.136344E-01   2.938933E-01   1.022022E-01   2.790564E-02   1.386618E-01   8.567751E-02   5.935947E-02   4.872676E-02   2.666789E-02   1.558565E-02   4.187152E-02   3.391483E-02   1.308226E-02   1.890916E-02   2.805054E-02   3.807814E-02   3.985694E-02   1.671393E-01   1.262204E-01   4.745957E-02   1.850189E-02   1.850189E-02   1.460380E-02   2.874541E-02   2.874541E-02   1.109004E-01   8.041472E-02   8.041472E-02   9.334857E-02   9.334857E-02   9.334857E-02   7.230558E-02   7.230558E-02   7.230558E-02   1.585697E-02   1.585697E-02   1.585697E-02   1.585697E-02   1.585697E-02   4.400953E-02   4.400953E-02   4.400953E-02   4.400953E-02   4.400953E-02   1.230939E-01   1.230939E-01   1.230939E-01   1.230939E-01   1.230939E-01   1.230939E-01   1.230939E-01   3.538819E-02   3.538819E-02   3.538819E-02   3.538819E-02   3.538819E-02   3.538819E-02   3.538819E-02   3.538819E-02   3.538819E-02   3.538819E-02   6.468666E-02   6.468666E-02   6.468666E-02   6.468666E-02   6.468666E-02   6.468666E-02   6.468666E-02   6.468666E-02   6.468666E-02   5.050576E-02   5.050576E-02   5.050576E-02   5.050576E-02   5.050576E-02   5.050576E-02   5.050576E-02   3.422851E-02   3.422851E-02   3.422851E-02   3.422851E-02   3.422851E-02   2.934684E-02   2.934684E-02   2.934684E-02   2.934684E-02   5.199120E-02   5.199120E-02   5.199120E-02   3.145948E-01   3.145948E-01   1.390654E-01   1.390654E-01   1.462897E-02   1.462897E-02   2.809499E-02   3.785257E-02   3.976337E-02   3.976337E-02   5.633152E-02   2.443751E-02   1.526728E-02   3.168460E-02   3.812748E-02   1.193174E-02   2.635107E-02   5.579881E-02   2.956881E-02   9.639170E-02   1.550400E-01   6.597289E-02   2.937565E-01   5.001847E-01   8.518144E-02   4.348923E-02   1.547070E-01   1.862461E-01   1.289626E-01   1.267732E-01   1.648945E-01   1.097744E-01   2.822744E-02   4.292685E-02   2.616726E-02   3.206892E-02   3.830817E-02   2.077125E-02   5.276911E-02   5.605538E-02   1.011812E-01   1.866832E-01   7.789896E-02   1.341185E-01   5.319684E-02   1.774906E-02   4.872541E-02   3.603504E-02   3.248550E-02
   1.899525E-02   2.524109E-02   2.955071E-02   1.889372E-01   1.475517E-01   5.045866E-02   3.620350E-02   1.000652E-01   4.044639E-02   3.333296E-02   5.718351E-02   6.155581E-02   2.528403E-02   2.334427E-02   7.106651E-03   1.689231E-02   2.209093E-02   6.697218E-02   4.314315E-02   1.352785E-02   2.469010E-02   1.580769E-02   1.327102E-02   8.031025E-02   2.785034E-01   2.072384E-01   4.954984E-02   5.683139E-02   3.140744E-02   1.726025E-02   3.215408E-02   2.589740E-02   2.568230E-02   2.333966E-02   5.570739E-02   6.993924E-02   1.235623E-01   1.113378E-01   7.503185E-02   4.490457E-02   3.772096E-02   1.226814E-01   5.942485E-02   8.741679E-02   6.891485E-02   1.084111E-01   6.036925E-02   3.856747E-02   4.549823E-02   2.192505E-02   1.460303E-02   2.342214E-02   7.217640E-02   6.794236E-02   9.282282E-02   1.556857E-01   1.542374E-01   1.702665E-01   1.837507E-01   9.696641E-02   1.088767E-01   7.472325E-02   4.965014E-02   2.335153E-02   6.613006E-02   3.967748E-02   5.574375E-02   1.946150E-01   2.639500E-01   1.658762E-01   1.422997E-01   5.051358E-02   6.207557E-02   1.898660E-01   1.187972E-01   1.114722E-01   5.410806E-02   2.205929E-02   9.662502E-03   4.837934E-02   3.353823E-02   3.112474E-02   3.030319E-02   3.767320E-02   6.299210E-02   4.524398E-02   1.186364E-01   9.769478E-02   4.593166E-02   2.829648E-02   2.829648E-02   1.202579E-02   2.319148E-02   2.319148E-02   7.487955E-02   8.053054E-02   8.053054E-02   7.800203E-02   7.800203E-02   7.800203E-02   5.567378E-02   5.567378E-02   5.567378E-02   2.358830E-02   2.358830E-02   2.358830E-02   2.358830E-02   2.358830E-02   3.092265E-02   3.092265E-02   3.092265E-02   3.092265E-02   3.092265E-02   1.301040E-01   1.301040E-01   1.301040E-01   1.301040E-01   1.301040E-01   1.301040E-01   1.301040E-01   5.667341E-02   5.667341E-02   5.667341E-02   5.667341E-02   5.667341E-02   5.667341E-02   5.667341E-02   5.667341E-02   5.667341E-02   5.667341E-02   1.504929E-01   1.504929E-01   1.504929E-01   1.504929E-01   1.504929E-01   1.504929E-01   1.504929E-01   1.504929E-01   1.504929E-01   2.541833E-02   2.541833E-02   2.541833E-02   2.541833E-02   2.541833E-02   2.541833E-02   2.541833E-02   5.378729E-02   5.378729E-02   5.378729E-02   5.378729E-02   5.378729E-02   5.267696E-02   5.267696E-02   5.267696E-02   5.267696E-02   1.368710E-01   1.368710E-01   1.368710E-01   2.342628E-01   2.342628E-01   2.062144E-01   2.062144E-01   1.681326E-02   1.681326E-02   2.486259E-02   6.819960E-02   6.247017E-02   6.247017E-02   2.558427E-02   3.333442E-02   1.907966E-02   2.476847E-02   4.362751E-02   1.883306E-02   8.373693E-02   5.158248E-02   5.751503E-02   6.034630E-02   1.436914E-01   5.470309E-02   1.080397E-01   2.733984E-01   1.605877E-01   8.388202E-02   1.737972E-01   1.573098E-01   7.576926E-02   8.138865E-02   1.942752E-01   7.233376E-02   6.784280E-02   1.031939E-01   1.737802E-02   3.801093E-02   4.913646E-02   5.161333E-02   7.426354E-02   9.291518E-02   1.038102E-01   1.539784E-01   1.187823E-01   2.843827E-01   8.346017E-02   3.151144E-02   4.639764E-02   4.406982E-02   6.423728E-02
   2.339567E-02   3.629353E-02   6.648161E-02   1.000459E-01   1.106069E-01   3.710676E-02   4.695256E-02   6.581376E-02   2.496661E-02   6.167825E-02   8.493683E-02   3.545702E-02   4.375027E-02   1.499486E-02   7.090926E-03   2.888449E-02   2.444965E-02   1.964424E-02   2.729029E-02   2.511551E-02   1.716803E-02   1.310561E-02   2.166853E-02   7.491004E-02   2.383833E-01   4.963895E-01   3.535501E-02   4.760209E-02   4.134906E-02   6.805398E-02   1.015325E-01   4.593001E-02   6.138090E-02   2.649896E-02   7.081089E-02   1.411345E-01   2.066065E-01   1.211188E-01   7.402132E-02   6.027247E-02   4.946679E-02   9.272589E-02   7.176551E-02   4.014916E-02   1.162358E-01   1.553352E-01   2.950604E-02   2.602440E-02   3.473619E-02   2.795093E-02   2.485046E-02   9.285841E-02   5.388637E-02   3.810529E-02   7.331382E-02   2.547057E-01   1.146273E-01   8.491852E-02   5.973082E-02   3.910360E-02   7.561333E-02   4.417061E-02   2.726380E-02   4.728224E-02   1.147381E-01   3.801097E-02   1.079973E-01   2.877277E-01   1.928614E-01   7.828373E-02   9.086705E-02   4.310204E-02   4.489899E-02   6.526668E-02   4.728941E-02   6.521812E-02   5.633393E-02   1.803025E-02   1.632274E-02   1.623388E-02   1.876559E-02   2.854241E-02   4.000312E-02   4.519658E-02   5.589926E-02   6.300659E-02   1.515495E-01   5.663920E-02   7.266815E-02   1.974972E-02   1.974972E-02   1.329512E-02   1.161228E-02   1.161228E-02   2.673678E-02   1.139658E-01   1.139658E-01   1.237298E-01   1.237298E-01   1.237298E-01   7.569046E-02   7.569046E-02   7.569046E-02   3.700040E-02   3.700040E-02   3.700040E-02   3.700040E-02   3.700040E-02   3.829250E-02   3.829250E-02   3.829250E-02   3.829250E-02   3.829250E-02   9.008962E-02   9.008962E-02   9.008962E-02   9.008962E-02   9.008962E-02   9.008962E-02   9.008962E-02   5.867210E-02   5.867210E-02   5.867210E-02   5.867210E-02   5.867210E-02   5.867210E-02   5.867210E-02   5.867210E-02   5.867210E-02   5.867210E-02   1.530722E-01   1.530722E-01   1.530722E-01   1.530722E-01   1.530722E-01   1.530722E-01   1.530722E-01   1.530722E-01   1.530722E-01   2.538395E-02   2.538395E-02   2.538395E-02   2.538395E-02   2.538395E-02   2.538395E-02   2.538395E-02   8.063544E-02   8.063544E-02   8.063544E-02   8.063544E-02   8.063544E-02   9.409174E-02   9.409174E-02   9.409174E-02   9.409174E-02   2.792098E-01   2.792098E-01   2.792098E-01   1.768631E-01   1.768631E-01   9.639540E-02   9.639540E-02   3.858912E-02   3.858912E-02   3.989526E-02   4.300530E-02   2.242621E-02   2.242621E-02   2.816119E-02   1.646920E-02   1.590867E-02   1.635046E-02   4.465206E-02   5.286459E-02   1.153352E-01   3.248387E-02   6.023061E-02   5.714917E-02   6.801818E-02   3.837556E-02   1.384122E-01   4.843643E-01   2.372939E-01   4.943248E-02   1.718823E-01   1.955547E-01   7.023237E-02   1.938446E-01   2.628186E-01   1.041720E-01   1.173248E-01   1.053284E-01   3.308562E-02   2.386685E-02   5.226246E-02   2.663167E-02   9.554833E-02   1.068249E-01   1.246230E-01   8.504684E-02   2.360107E-01   2.473298E-01   6.552002E-02   3.802710E-02   3.403050E-02   4.084395E-02   6.218832E-02
   6.507262E-02   3.194372E-02   5.712203E-02   1.397593E-01   8.250270E-02   3.757941E-02   3.680211E-02   4.309153E-02   2.604765E-02   4.375630E-02   7.694071E-02   5.984316E-02   5.119570E-02   7.226516E-02   9.361458E-03   2.579359E-02   4.827038E-02   2.912403E-02   1.860788E-02   1.852076E-02   8.903776E-03   1.116762E-02   3.926481E-02   5.524551E-02   2.080009E-01   9.653066E-01   4.644162E-02   5.392219E-02   5.201501E-02   1.888313E-01   9.971292E-02   2.057108E-01   6.189480E-02   3.610814E-02   3.830627E-02   1.069940E-01   2.946991E-01   1.045825E-01   1.030427E-01   6.033073E-02   1.135691E-01   1.411334E-01   1.147969E-01   1.171259E-01   1.089944E-01   7.064402E-01   6.123631E-02   1.728626E-02   2.202363E-02   1.185177E-02   3.244516E-02   9.592663E-02   6.830875E-02   5.591666E-02   1.030858E-01   9.758143E-02   4.103122E-02   6.460219E-02   2.957652E-02   4.146482E-02   5.237334E-02   4.430027E-02   3.091596E-02   4.030220E-02   6.046076E-02   1.157871E-01   1.979345E-01   3.250387E-01   2.230520E-01   1.218730E-01   4.812485E-02   4.256650E-02   4.627668E-02   3.965682E-02   3.050485E-02   7.885306E-02   4.640476E-02   2.016493E-02   2.970804E-02   2.082472E-02   2.187020E-02   4.933427E-02   2.102572E-02   2.329810E-02   3.541208E-02   1.100758E-01   9.919822E-02   5.650768E-02   6.203808E-02   2.152761E-02   2.152761E-02   1.161260E-02   1.132288E-02   1.132288E-02   3.597946E-02   8.262094E-02   8.262094E-02   1.132500E-01   1.132500E-01   1.132500E-01   1.977193E-01   1.977193E-01   1.977193E-01   7.150378E-02   7.150378E-02   7.150378E-02   7.150378E-02   7.150378E-02   7.319076E-02   7.319076E-02   7.319076E-02   7.319076E-02   7.319076E-02   5.657558E-02   5.657558E-02   5.657558E-02   5.657558E-02   5.657558E-02   5.657558E-02   5.657558E-02   1.476000E-01   1.476000E-01   1.476000E-01   1.476000E-01   1.476000E-01   1.476000E-01   1.476000E-01   1.476000E-01   1.476000E-01   1.476000E-01   9.342400E-01   9.342400E-01   9.342400E-01   9.342400E-01   9.342400E-01   9.342400E-01   9.342400E-01   9.342400E-01   9.342400E-01   6.332297E-02   6.332297E-02   6.332297E-02   6.332297E-02   6.332297E-02   6.332297E-02   6.332297E-02   6.155056E-02   6.155056E-02   6.155056E-02   6.155056E-02   6.155056E-02   9.363876E-02   9.363876E-02   9.363876E-02   9.363876E-02   3.416276E-01   3.416276E-01   3.416276E-01   8.358297E-02   8.358297E-02   6.713507E-02   6.713507E-02   3.290462E-02   3.290462E-02   2.139302E-02   3.826239E-02   3.521215E-02   3.521215E-02   1.609355E-02   1.552789E-02   1.965269E-02   5.386804E-02   2.927401E-02   6.746791E-02   6.962717E-02   4.476685E-02   1.623172E-01   7.761239E-02   5.206670E-02   3.598734E-02   9.591924E-02   2.591835E-01   1.292963E-01   4.131002E-02   4.752025E-01   1.806196E-01   2.286647E-01   3.552478E-01   2.430226E-01   9.161647E-02   7.103673E-02   6.280389E-02   3.591695E-02   4.161206E-02   7.902940E-02   4.395873E-02   5.288429E-02   4.827917E-02   1.416545E-01   7.967841E-02   2.700837E-01   1.579576E-01   1.418781E-01   3.509477E-02   2.763930E-02   3.424622E-02   6.042086E-02
   2.861991E-02   3.141720E-02   3.898597E-02   5.563844E-02   8.686481E-02   3.850348E-02   2.971916E-02   2.743002E-02   4.131324E-02   4.797143E-02   7.243017E-02   6.687943E-02   4.310905E-02   4.824879E-02   1.959900E-02   1.648465E-02   2.031673E-02   3.855076E-02   1.657042E-02   1.230717E-02   9.887696E-03   3.130640E-02   6.378400E-02   8.761829E-02   1.992292E-01   1.908138E-01   9.491640E-02   4.719904E-02   8.101923E-02   4.440069E-01   3.510669E-01   4.694616E-01   1.346478E-01   8.677242E-02   5.841014E-02   9.700947E-02   2.659010E-01   9.924675E-02   2.305725E-01   9.813735E-02   2.075114E-01   5.021811E-02   1.090287E-01   1.109199E-01   1.105235E-01   2.821690E-01   5.908036E-02   1.329550E-02   1.804923E-02   1.323908E-02   2.433409E-02   9.109678E-02   2.725491E-02   8.315373E-02   6.829139E-02   1.667499E-01   7.788435E-02   4.561792E-02   2.218281E-02   4.420992E-02   2.629793E-02   4.892123E-02   5.859542E-02   6.220505E-02   5.713076E-02   7.116393E-02   6.988156E-02   1.345803E-01   1.152904E-01   1.169024E-01   3.000547E-02   5.166458E-02   2.869683E-02   3.436582E-02   2.605453E-02   5.080117E-02   3.052241E-02   2.079011E-02   2.697527E-02   4.696660E-02   1.653558E-02   4.415957E-02   1.235632E-02   3.302510E-02   5.979614E-02   1.506829E-01   5.966172E-02   4.393671E-02   4.260350E-02   1.923600E-02   1.923600E-02   1.050334E-02   8.761908E-03   8.761908E-03   7.759919E-03   6.040585E-02   6.040585E-02   1.143642E-01   1.143642E-01   1.143642E-01   9.402007E-02   9.402007E-02   9.402007E-02   9.037950E-02   9.037950E-02   9.037950E-02   9.037950E-02   9.037950E-02   9.414917E-02   9.414917E-02   9.414917E-02   9.414917E-02   9.414917E-02   7.921608E-02   7.921608E-02   7.921608E-02   7.921608E-02   7.921608E-02   7.921608E-02   7.921608E-02   3.601813E-01   3.601813E-01   3.601813E-01   3.601813E-01   3.601813E-01   3.601813E-01   3.601813E-01   3.601813E-01   3.601813E-01   3.601813E-01   2.953068E-01   2.953068E-01   2.953068E-01   2.953068E-01   2.953068E-01   2.953068E-01   2.953068E-01   2.953068E-01   2.953068E-01   7.596736E-02   7.596736E-02   7.596736E-02   7.596736E-02   7.596736E-02   7.596736E-02   7.596736E-02   2.156802E-01   2.156802E-01   2.156802E-01   2.156802E-01   2.156802E-01   7.348891E-02   7.348891E-02   7.348891E-02   7.348891E-02   1.772858E-01   1.772858E-01   1.772858E-01   6.799545E-02   6.799545E-02   2.241980E-02   2.241980E-02   2.749215E-02   2.749215E-02   2.674699E-02   3.768677E-02   3.316769E-02   3.316769E-02   1.015813E-02   3.799547E-02   4.626674E-02   1.735619E-02   2.605168E-02   6.424166E-02   8.958860E-02   7.251582E-02   4.816188E-02   2.489905E-02   2.200220E-02   2.538270E-02   4.031763E-02   1.267048E-01   1.899884E-01   1.240932E-01   2.956225E-01   2.665599E-01   1.033946E-01   1.330375E-01   1.271756E-01   7.568532E-02   5.792358E-02   1.046659E-01   6.388011E-02   5.303244E-02   8.001241E-02   4.790074E-02   2.145461E-02   5.816851E-02   1.852772E-01   1.724482E-01   6.189679E-01   2.285338E-01   1.267963E-01   1.670060E-01   2.910407E-02   2.952287E-02   8.101130E-02