# LPF package for  MODFLOW-2005, generated by Flopy.
        53    -1E+30         0  
         1
         0
   0.000000E+00
         0
         0
INTERNAL               1 (207E15.6) -1 #hk layer 1                    
   1.172560E+01   1.416569E+01   7.281744E+00   1.073021E+01   1.793167E+01   1.539435E+01   3.353901E+01   4.331767E+01   1.399207E+01   1.968886E+01   3.716140E+01   3.099650E+01   5.249858E+01   7.724851E+01   8.422449E+01   3.921604E+01   6.860184E+01   2.422655E+01   3.906628E+01   2.182912E+01   4.358830E+00   6.779744E+00   2.681232E+01   1.240129E+02   1.380623E+02   1.581497E+02   1.290604E+02   6.209082E+01   1.468147E+02   3.090808E+01   3.438147E+01   3.182466E+01   3.318288E+01   6.811333E+01   3.650662E+01   5.088322E+01   8.723378E+01   3.283497E+01   7.240533E+01   1.538197E+02   1.060001E+02   6.673537E+01   1.196489E+02   8.085216E+01   8.889700E+01   5.243969E+01   7.458000E+01   1.127865E+02   5.360888E+01   2.809365E+01   2.554445E+01   2.950235E+01   3.085008E+01   5.018964E+01   6.279389E+01   5.919222E+01   9.097493E+01   5.554252E+01   1.004737E+02   1.129550E+02   7.225377E+01   2.492640E+01   1.060672E+01   8.026306E+00   1.030740E+01   1.105401E+01   1.227426E+01   2.894747E+01   5.458387E+01   3.613396E+01   3.388841E+01   1.288526E+01   4.342276E+01   3.439365E+01   6.699470E+01   6.354685E+01   3.012746E+01   3.001412E+01   5.828681E+00   3.949482E+01   1.337949E+01   9.582501E+00   1.372299E+01   2.291959E+01   1.307228E+01   2.659764E+01   1.712823E+01   6.649636E+01   8.332607E+01   8.057751E+01   8.057751E+01   1.580730E+02   1.769940E+02   1.769940E+02   1.417717E+02   1.229938E+02   1.229938E+02   3.824315E+02   3.824315E+02   3.824315E+02   8.359675E+01   8.359675E+01   8.359675E+01   1.726831E+01   1.726831E+01   1.726831E+01   1.726831E+01   1.726831E+01   2.892370E+01   2.892370E+01   2.892370E+01   2.892370E+01   2.892370E+01   1.327368E+01   1.327368E+01   1.327368E+01   1.327368E+01   1.327368E+01   1.327368E+01   1.327368E+01   1.123875E+01   1.123875E+01   1.123875E+01   1.123875E+01   1.123875E+01   1.123875E+01   1.123875E+01   1.123875E+01   1.123875E+01   1.123875E+01   5.621546E+00   5.621546E+00   5.621546E+00   5.621546E+00   5.621546E+00   5.621546E+00   5.621546E+00   5.621546E+00   5.621546E+00   6.678936E+00   6.678936E+00   6.678936E+00   6.678936E+00   6.678936E+00   6.678936E+00   6.678936E+00   2.106132E+01   2.106132E+01   2.106132E+01   2.106132E+01   2.106132E+01   5.894652E+01   5.894652E+01   5.894652E+01   5.894652E+01   2.605127E+02   2.605127E+02   2.605127E+02   1.486705E+02   1.486705E+02   1.158627E+02   1.158627E+02   1.829566E+01   1.829566E+01   6.521788E+00   1.040221E+01   7.071994E+01   7.071994E+01   6.449844E+01   3.446722E+01   8.015106E+01   6.992837E+01   1.536416E+02   7.388665E+01   1.283341E+02   7.124430E+01   2.629659E+01   1.790570E+01   2.375539E+01   2.674147E+01   1.133084E+01   2.721547E+01   1.768370E+01   1.258105E+01   1.290391E+01   2.428986E+01   4.373654E+01   5.847677E+01   3.891385E+01   1.297252E+02   1.430749E+02   7.034817E+01   2.172640E+01   1.993549E+01   4.311353E+00   3.929485E+00   7.183356E+00   9.980046E+00   3.334138E+00   3.111625E+00   5.756919E+00   1.552266E+01   3.099681E+01   2.349715E+02   9.612235E+01   5.559095E+01   5.015317E+01
   1.022220E+01   3.094956E+01   1.306048E+01   3.717400E+00   1.386356E+01   4.332634E+01   2.592039E+01   1.208042E+01   9.392412E+00   3.831929E+01   3.302092E+01   2.783748E+01   4.269949E+01   9.765453E+01   5.505809E+01   5.514820E+01   5.927269E+01   5.800578E+01   5.541327E+01   1.885623E+01   6.155909E+00   1.752136E+01   2.068166E+01   4.888922E+01   1.156212E+02   1.655367E+02   8.553208E+01   5.606533E+01   1.510325E+02   4.004707E+01   5.610791E+01   3.170089E+01   3.981723E+01   8.425135E+01   5.646946E+01   3.679643E+01   2.347728E+01   6.615312E+01   9.969955E+01   1.232108E+02   1.441596E+02   1.085562E+02   1.933552E+02   1.609339E+02   5.737509E+01   6.075031E+01   1.047319E+02   1.100390E+02   3.303529E+01   2.368271E+01   1.372347E+01   1.659693E+01   3.415859E+01   4.111185E+01   4.265030E+01   4.153288E+01   4.527327E+01   5.332018E+01   4.660493E+01   4.331934E+01   7.574456E+01   3.505724E+01   6.581035E+00   1.069734E+01   1.513135E+01   1.064058E+01   2.063148E+01   3.657023E+01   7.570677E+01   2.476080E+01   2.734024E+01   3.183874E+01   5.244705E+01   5.690331E+01   1.097614E+02   8.433875E+01   2.456309E+01   1.644687E+01   1.054011E+01   1.038175E+01   1.712741E+01   1.677392E+01   1.123256E+01   2.812051E+01   1.575628E+01   1.959214E+01   1.945126E+01   3.740738E+01   6.852348E+01   6.249893E+01   6.249893E+01   9.262758E+01   1.532582E+02   1.532582E+02   1.819543E+02   3.028901E+02   3.028901E+02   1.253448E+02   1.253448E+02   1.253448E+02   7.627953E+01   7.627953E+01   7.627953E+01   4.989154E+01   4.989154E+01   4.989154E+01   4.989154E+01   4.989154E+01   4.789481E+01   4.789481E+01   4.789481E+01   4.789481E+01   4.789481E+01   1.317447E+01   1.317447E+01   1.317447E+01   1.317447E+01   1.317447E+01   1.317447E+01   1.317447E+01   9.924574E+00   9.924574E+00   9.924574E+00   9.924574E+00   9.924574E+00   9.924574E+00   9.924574E+00   9.924574E+00   9.924574E+00   9.924574E+00   7.261957E+00   7.261957E+00   7.261957E+00   7.261957E+00   7.261957E+00   7.261957E+00   7.261957E+00   7.261957E+00   7.261957E+00   7.435874E+00   7.435874E+00   7.435874E+00   7.435874E+00   7.435874E+00   7.435874E+00   7.435874E+00   2.513976E+01   2.513976E+01   2.513976E+01   2.513976E+01   2.513976E+01   5.816641E+01   5.816641E+01   5.816641E+01   5.816641E+01   1.625699E+02   1.625699E+02   1.625699E+02   2.044577E+02   2.044577E+02   1.173582E+02   1.173582E+02   1.411026E+01   1.411026E+01   7.050119E+00   2.040344E+01   5.288266E+01   5.288266E+01   6.297220E+01   4.630104E+01   6.677954E+01   5.078796E+01   1.618283E+02   3.685067E+01   6.770624E+01   2.099997E+01   1.963557E+01   2.491426E+01   3.775899E+01   3.088820E+01   2.470517E+01   1.987508E+01   3.823267E+01   1.585648E+01   3.192159E+01   2.574753E+01   5.945315E+01   9.425045E+01   4.620703E+01   2.362984E+02   3.638003E+02   6.433108E+01   1.722313E+01   1.881968E+01   8.043226E+00   6.737135E+00   2.332703E+00   8.228543E+00   5.466582E+00   4.256485E+00   3.561382E+00   6.202297E+00   2.625731E+01   1.101583E+02   8.284035E+01   4.624532E+01   5.218469E+01
   1.470050E+01   2.833772E+01   1.795229E+01   4.134592E+00   9.578366E+00   3.867329E+01   1.936608E+01   1.117116E+01   1.708314E+01   3.772071E+01   3.675584E+01   4.259300E+01   4.848029E+01   5.853980E+01   9.637286E+01   4.811544E+01   4.507422E+01   4.420195E+01   4.179710E+01   2.017464E+01   1.415524E+01   1.959556E+01   1.519471E+01   8.162381E+01   1.494373E+02   1.155048E+02   8.733540E+01   6.902970E+01   8.345670E+01   3.021903E+01   3.996538E+01   6.677465E+01   5.779614E+01   4.063353E+01   3.155293E+01   3.295464E+01   2.099097E+01   4.615749E+01   1.125223E+02   2.283038E+02   1.249581E+02   9.509370E+01   2.063887E+02   1.291535E+02   3.983567E+01   3.841974E+01   9.191776E+01   2.164863E+01   1.672896E+01   2.037372E+01   8.617374E+00   2.201255E+01   6.706248E+01   4.631383E+01   3.516912E+01   3.063075E+01   4.155358E+01   2.058708E+01   3.444599E+01   4.263432E+01   2.488530E+01   2.740531E+01   8.907203E+00   9.083389E+00   9.658219E+00   1.642358E+01   1.185541E+01   4.735622E+01   3.819292E+01   2.221661E+01   3.314230E+01   3.369823E+01   8.360947E+01   7.791772E+01   5.701680E+01   4.780891E+01   1.948429E+01   3.386074E+01   2.468495E+01   8.464544E+00   1.164058E+01   1.325740E+01   1.146194E+01   2.371602E+01   2.474515E+01   1.936078E+01   1.910599E+01   4.315044E+01   6.891994E+01   3.243816E+01   3.243816E+01   7.058093E+01   2.711163E+02   2.711163E+02   1.541383E+02   1.644570E+02   1.644570E+02   1.991016E+02   1.991016E+02   1.991016E+02   1.114061E+02   1.114061E+02   1.114061E+02   5.844598E+01   5.844598E+01   5.844598E+01   5.844598E+01   5.844598E+01   2.784315E+01   2.784315E+01   2.784315E+01   2.784315E+01   2.784315E+01   2.098312E+01   2.098312E+01   2.098312E+01   2.098312E+01   2.098312E+01   2.098312E+01   2.098312E+01   2.118739E+01   2.118739E+01   2.118739E+01   2.118739E+01   2.118739E+01   2.118739E+01   2.118739E+01   2.118739E+01   2.118739E+01   2.118739E+01   1.753440E+01   1.753440E+01   1.753440E+01   1.753440E+01   1.753440E+01   1.753440E+01   1.753440E+01   1.753440E+01   1.753440E+01   9.224073E+00   9.224073E+00   9.224073E+00   9.224073E+00   9.224073E+00   9.224073E+00   9.224073E+00   3.350205E+01   3.350205E+01   3.350205E+01   3.350205E+01   3.350205E+01   1.093630E+02   1.093630E+02   1.093630E+02   1.093630E+02   1.485205E+02   1.485205E+02   1.485205E+02   2.298619E+02   2.298619E+02   7.630467E+01   7.630467E+01   9.185848E+00   9.185848E+00   1.376021E+01   2.505659E+01   1.983537E+01   1.983537E+01   4.466154E+01   5.663345E+01   5.075865E+01   5.759888E+01   5.766594E+01   3.425551E+01   3.504269E+01   1.195656E+01   1.880961E+01   6.163391E+01   4.923037E+01   4.647017E+01   4.792369E+01   1.716951E+01   1.696895E+01   1.889928E+01   9.189936E+01   2.672614E+01   4.616530E+01   1.060125E+02   4.127645E+01   1.661320E+02   2.224299E+02   8.163692E+01   5.442713E+01   1.217742E+01   8.851377E+00   2.502964E+01   4.491250E+00   6.744617E+00   4.463727E+00   2.994406E+00   8.080824E+00   6.642980E+00   1.666462E+01   4.300040E+01   8.690093E+01   3.734462E+01   4.907083E+01
   1.889495E+01   1.950533E+01   2.412241E+01   9.020405E+00   1.158027E+01   2.317638E+01   1.775756E+01   1.418523E+01   1.878848E+01   5.461953E+01   1.182690E+02   2.387915E+01   2.388750E+01   4.774025E+01   7.105971E+01   8.205474E+01   1.003183E+02   2.834165E+01   2.283378E+01   1.628594E+01   1.626740E+01   2.499439E+01   7.115047E+00   4.178003E+01   2.037713E+02   5.280587E+01   1.188299E+02   9.117720E+01   1.279292E+02   3.667005E+01   6.742060E+01   7.181642E+01   5.110223E+01   3.633050E+01   3.679570E+01   5.511734E+01   3.143932E+01   2.442100E+01   4.554810E+01   1.304859E+02   1.001410E+02   1.396912E+02   1.756698E+02   1.305553E+02   3.014513E+01   3.141561E+01   4.142538E+01   2.101039E+01   3.366919E+01   1.591870E+01   8.929995E+00   3.946288E+01   3.382767E+01   3.499242E+01   2.230664E+01   3.306755E+01   2.955543E+01   2.375534E+01   2.639517E+01   6.204560E+01   1.417389E+01   2.529044E+01   1.474107E+01   1.329596E+01   1.296974E+01   7.285541E+00   9.233717E+00   2.753546E+01   3.493080E+01   1.552831E+01   1.614955E+01   6.876249E+01   7.748921E+01   1.018779E+02   5.928122E+01   4.033728E+01   8.231363E+00   2.946401E+01   2.042556E+01   1.031422E+01   1.171865E+01   1.435347E+01   1.383500E+01   1.768769E+01   1.487374E+01   1.946921E+01   1.032716E+01   4.980322E+01   2.754389E+01   2.987912E+01   2.987912E+01   9.832175E+01   3.215942E+02   3.215942E+02   1.759144E+02   1.299043E+02   1.299043E+02   2.028020E+02   2.028020E+02   2.028020E+02   1.866638E+02   1.866638E+02   1.866638E+02   2.089861E+02   2.089861E+02   2.089861E+02   2.089861E+02   2.089861E+02   5.660216E+01   5.660216E+01   5.660216E+01   5.660216E+01   5.660216E+01   1.179115E+01   1.179115E+01   1.179115E+01   1.179115E+01   1.179115E+01   1.179115E+01   1.179115E+01   1.683155E+01   1.683155E+01   1.683155E+01   1.683155E+01   1.683155E+01   1.683155E+01   1.683155E+01   1.683155E+01   1.683155E+01   1.683155E+01   2.088820E+01   2.088820E+01   2.088820E+01   2.088820E+01   2.088820E+01   2.088820E+01   2.088820E+01   2.088820E+01   2.088820E+01   1.946213E+01   1.946213E+01   1.946213E+01   1.946213E+01   1.946213E+01   1.946213E+01   1.946213E+01   4.056888E+01   4.056888E+01   4.056888E+01   4.056888E+01   4.056888E+01   2.000304E+02   2.000304E+02   2.000304E+02   2.000304E+02   2.798105E+02   2.798105E+02   2.798105E+02   1.916573E+02   1.916573E+02   2.978821E+01   2.978821E+01   1.079157E+01   1.079157E+01   1.342400E+01   1.899436E+01   2.908765E+01   2.908765E+01   3.243395E+01   1.255977E+02   8.852216E+01   2.976849E+01   4.241233E+01   2.836007E+01   2.465397E+01   1.074761E+01   1.701397E+01   1.170631E+02   6.239490E+01   1.002986E+02   9.766820E+01   2.043335E+01   3.133508E+01   8.192868E+01   8.517321E+01   5.772274E+01   8.909433E+01   7.781133E+01   4.964109E+01   8.546191E+01   1.654566E+02   7.454337E+01   7.290137E+01   2.761815E+01   1.335036E+01   8.864313E+00   1.191877E+01   2.600260E+01   4.205672E+00   3.480310E+00   9.709045E+00   2.092157E+01   1.166217E+01   1.304683E+01   2.286424E+01   3.946560E+01   1.100844E+02
   2.395024E+01   4.783942E+01   2.428765E+01   1.058948E+01   1.298223E+01   1.684901E+01   9.412602E+00   1.411487E+01   2.256079E+01   4.131852E+01   3.418683E+01   2.039840E+01   1.983733E+01   4.179654E+01   8.030989E+01   5.936333E+01   5.264625E+01   3.465412E+01   4.097059E+01   2.095496E+01   1.440271E+01   2.323993E+01   2.033238E+01   2.187896E+01   1.022990E+02   6.156532E+01   7.529456E+01   2.697310E+01   5.065984E+01   3.328261E+01   4.436483E+01   5.975361E+01   4.000246E+01   6.419726E+01   3.607811E+01   9.426511E+01   4.969024E+01   2.522146E+01   1.070554E+02   1.163618E+02   2.344395E+02   2.916851E+02   8.339172E+01   5.849689E+01   1.594489E+01   1.138683E+01   2.576092E+01   2.822555E+01   7.670654E+01   3.357576E+01   1.907146E+01   5.238323E+01   3.112767E+01   2.445538E+01   1.777271E+01   2.675275E+01   3.583533E+01   1.122980E+01   1.579257E+01   2.924810E+01   8.260981E+00   1.672093E+01   2.810139E+01   1.475763E+01   1.067932E+01   5.521471E+00   7.316648E+00   2.311600E+01   5.843443E+01   2.864406E+01   2.070204E+01   8.292744E+01   9.254635E+01   5.675756E+01   3.137033E+01   1.540569E+01   1.032233E+01   2.771173E+01   1.794076E+01   8.155570E+00   1.384651E+01   1.625364E+01   2.724930E+01   2.656232E+01   1.021072E+01   1.248217E+01   1.630692E+01   3.115098E+01   5.211948E+01   3.448856E+01   3.448856E+01   6.941487E+01   1.386311E+02   1.386311E+02   1.491668E+02   3.160524E+02   3.160524E+02   2.395747E+02   2.395747E+02   2.395747E+02   2.569383E+02   2.569383E+02   2.569383E+02   7.964029E+01   7.964029E+01   7.964029E+01   7.964029E+01   7.964029E+01   6.396638E+01   6.396638E+01   6.396638E+01   6.396638E+01   6.396638E+01   4.761100E+01   4.761100E+01   4.761100E+01   4.761100E+01   4.761100E+01   4.761100E+01   4.761100E+01   1.080306E+01   1.080306E+01   1.080306E+01   1.080306E+01   1.080306E+01   1.080306E+01   1.080306E+01   1.080306E+01   1.080306E+01   1.080306E+01   2.825241E+01   2.825241E+01   2.825241E+01   2.825241E+01   2.825241E+01   2.825241E+01   2.825241E+01   2.825241E+01   2.825241E+01   4.000121E+01   4.000121E+01   4.000121E+01   4.000121E+01   4.000121E+01   4.000121E+01   4.000121E+01   1.074308E+02   1.074308E+02   1.074308E+02   1.074308E+02   1.074308E+02   1.815872E+02   1.815872E+02   1.815872E+02   1.815872E+02   3.152839E+02   3.152839E+02   3.152839E+02   1.015410E+02   1.015410E+02   1.798460E+01   1.798460E+01   1.295028E+01   1.295028E+01   2.869144E+01   2.297630E+01   1.292675E+01   1.292675E+01   1.607818E+01   7.956837E+01   5.512282E+01   3.240491E+01   2.422553E+01   1.372113E+01   8.175353E+00   1.480973E+01   3.329938E+01   1.113492E+02   9.250443E+01   9.173254E+01   1.207342E+02   2.451259E+01   3.214252E+01   4.746313E+01   1.279696E+02   9.793610E+01   1.129807E+02   6.977258E+01   6.571317E+01   6.546328E+01   1.347875E+02   6.928848E+01   6.526909E+01   1.788289E+01   1.317213E+01   7.381901E+00   1.341257E+01   3.196256E+01   1.037927E+01   3.985101E+00   4.384053E+00   1.391556E+01   5.810446E+00   1.307909E+01   2.533212E+01   2.624560E+01   7.188074E+01
   5.845177E+01   4.303102E+01   3.511692E+01   3.516396E+01   1.413772E+01   1.733044E+01   1.349260E+01   3.610416E+01   1.331346E+01   4.474207E+01   2.531250E+01   1.444002E+01   2.615772E+01   1.813096E+01   2.336930E+01   5.791005E+01   2.432430E+01   1.841882E+01   4.727060E+01   3.521717E+01   2.904241E+01   2.276361E+01   2.503057E+01   3.865726E+01   3.449816E+02   9.028588E+01   1.320989E+02   2.788296E+01   1.930630E+01   3.383698E+01   5.463351E+01   7.064223E+01   3.342205E+01   3.196286E+01   2.414595E+01   8.991502E+01   5.564031E+01   2.561835E+01   1.599015E+02   1.393568E+02   5.847957E+02   2.022869E+02   1.409588E+02   3.981699E+01   2.143736E+01   1.381287E+01   1.400945E+01   3.922285E+01   5.506696E+01   5.855570E+01   3.381972E+01   9.681972E+01   1.491573E+01   2.423388E+01   4.313561E+01   4.850664E+01   1.336597E+01   2.373789E+01   1.552748E+01   2.634566E+01   1.285849E+01   2.487582E+01   6.355109E+01   1.292486E+01   1.439462E+01   7.156623E+00   7.332286E+00   1.800993E+01   7.736491E+01   4.693961E+01   3.036309E+01   1.445336E+02   4.495823E+01   4.194888E+01   3.714735E+01   1.373221E+01   2.953066E+01   7.691348E+01   5.060147E+01   2.056378E+01   1.020228E+01   1.404560E+01   3.247385E+01   4.088008E+01   1.768112E+01   8.773201E+00   1.905175E+01   2.694070E+01   3.285445E+01   2.065694E+01   2.065694E+01   4.917708E+01   1.110445E+02   1.110445E+02   2.377583E+02   1.841550E+02   1.841550E+02   3.544972E+02   3.544972E+02   3.544972E+02   1.397230E+02   1.397230E+02   1.397230E+02   1.247991E+02   1.247991E+02   1.247991E+02   1.247991E+02   1.247991E+02   9.916533E+01   9.916533E+01   9.916533E+01   9.916533E+01   9.916533E+01   8.238516E+01   8.238516E+01   8.238516E+01   8.238516E+01   8.238516E+01   8.238516E+01   8.238516E+01   3.261082E+01   3.261082E+01   3.261082E+01   3.261082E+01   3.261082E+01   3.261082E+01   3.261082E+01   3.261082E+01   3.261082E+01   3.261082E+01   4.407679E+01   4.407679E+01   4.407679E+01   4.407679E+01   4.407679E+01   4.407679E+01   4.407679E+01   4.407679E+01   4.407679E+01   5.925302E+01   5.925302E+01   5.925302E+01   5.925302E+01   5.925302E+01   5.925302E+01   5.925302E+01   1.983852E+02   1.983852E+02   1.983852E+02   1.983852E+02   1.983852E+02   2.757801E+02   2.757801E+02   2.757801E+02   2.757801E+02   3.378600E+02   3.378600E+02   3.378600E+02   5.913400E+01   5.913400E+01   1.779425E+01   1.779425E+01   1.903350E+01   1.903350E+01   3.596455E+01   2.698489E+01   4.339118E+00   4.339118E+00   1.008657E+01   2.200700E+01   2.532541E+01   3.858825E+01   2.353986E+01   2.097476E+00   8.322001E+00   3.188871E+01   7.087562E+01   1.173569E+02   1.703613E+02   9.606241E+01   1.267561E+02   5.088731E+01   3.432897E+01   4.515212E+01   6.857717E+01   9.098535E+01   1.241804E+02   5.540049E+01   5.384063E+01   5.334281E+01   1.365872E+02   1.351867E+02   5.991142E+01   2.229482E+01   8.927456E+00   1.332937E+01   2.225653E+01   1.495341E+01   1.330515E+01   6.032166E+00   7.391848E+00   1.219703E+01   5.650953E+00   1.546791E+01   1.163114E+01   1.394792E+01   7.247095E+01
   1.028325E+02   4.673176E+01   2.123635E+01   1.168569E+01   8.954471E+00   1.696175E+01   1.559621E+01   3.934267E+01   1.706364E+01   3.128753E+01   3.491487E+01   2.025718E+01   1.485037E+01   1.118659E+01   2.524557E+01   5.680260E+01   4.225855E+01   2.141035E+01   4.057161E+01   1.146576E+01   2.166879E+01   2.127202E+01   3.435415E+01   1.377288E+02   3.080454E+02   8.167912E+01   3.547018E+01   2.969978E+01   3.748748E+01   3.852008E+01   8.118513E+01   7.489719E+01   4.778495E+01   6.237318E+01   4.361122E+01   4.734296E+01   2.645563E+01   4.892282E+01   1.397303E+02   2.127316E+02   2.360504E+02   3.197229E+02   1.419818E+02   4.592088E+01   1.096325E+01   8.599966E+00   9.058888E+00   4.318993E+01   1.088378E+02   1.018776E+02   1.443598E+02   4.004280E+01   1.274116E+01   3.364934E+01   3.816648E+01   2.621882E+01   4.010611E+01   6.841388E+01   4.744606E+01   3.200593E+01   1.984317E+01   5.381452E+01   9.810617E+01   2.325131E+01   1.698242E+01   9.163073E+00   1.555329E+01   3.230487E+01   5.093902E+01   5.840847E+01   1.149787E+01   4.557266E+01   1.989721E+01   5.809461E+01   9.278788E+01   3.037601E+01   2.793527E+01   8.558012E+01   5.839313E+01   1.642374E+01   6.878118E+00   1.804520E+01   3.690496E+01   4.489979E+01   2.625900E+01   7.183644E+00   2.204020E+01   4.755990E+01   7.013300E+01   3.920117E+01   3.920117E+01   9.276453E+01   1.501317E+02   1.501317E+02   2.177126E+02   1.015377E+02   1.015377E+02   1.930172E+02   1.930172E+02   1.930172E+02   1.428081E+02   1.428081E+02   1.428081E+02   1.733540E+02   1.733540E+02   1.733540E+02   1.733540E+02   1.733540E+02   2.125825E+02   2.125825E+02   2.125825E+02   2.125825E+02   2.125825E+02   1.709653E+02   1.709653E+02   1.709653E+02   1.709653E+02   1.709653E+02   1.709653E+02   1.709653E+02   1.150993E+02   1.150993E+02   1.150993E+02   1.150993E+02   1.150993E+02   1.150993E+02   1.150993E+02   1.150993E+02   1.150993E+02   1.150993E+02   1.070200E+02   1.070200E+02   1.070200E+02   1.070200E+02   1.070200E+02   1.070200E+02   1.070200E+02   1.070200E+02   1.070200E+02   6.241291E+01   6.241291E+01   6.241291E+01   6.241291E+01   6.241291E+01   6.241291E+01   6.241291E+01   1.007281E+02   1.007281E+02   1.007281E+02   1.007281E+02   1.007281E+02   1.255729E+02   1.255729E+02   1.255729E+02   1.255729E+02   2.043182E+02   2.043182E+02   2.043182E+02   8.448211E+01   8.448211E+01   7.252454E+01   7.252454E+01   4.285680E+01   4.285680E+01   1.585326E+01   1.913444E+01   8.215387E+00   8.215387E+00   8.872990E+00   6.173470E+00   2.377945E+01   8.232363E+01   1.432220E+01   2.210978E+00   1.181289E+01   6.403999E+01   7.529047E+01   5.243539E+01   7.864755E+01   1.382846E+02   7.334760E+01   3.635371E+01   2.198238E+01   4.292299E+01   2.216759E+01   8.532674E+01   1.122570E+02   5.331570E+01   4.946825E+01   1.306373E+02   2.839146E+02   2.394061E+02   3.881396E+01   2.630675E+01   6.505177E+00   1.709636E+01   2.214835E+01   1.383289E+01   1.487926E+01   1.315901E+01   8.629500E+00   8.916036E+00   2.738004E+00   6.139427E+00   7.045970E+00   1.688876E+01   8.843784E+01
   6.277001E+01   9.291346E+01   1.046285E+01   9.385735E+00   7.375649E+00   3.960627E+01   2.220385E+01   7.130770E+01   4.398991E+01   3.370290E+01   2.715812E+01   1.664436E+01   4.920596E+00   8.908388E+00   4.099426E+01   4.566782E+01   3.094675E+01   1.410950E+01   1.590486E+01   1.603988E+01   1.843461E+01   1.372277E+01   5.842278E+01   2.269304E+02   1.472281E+02   9.758670E+01   6.511441E+01   2.970932E+01   1.782214E+01   6.836463E+01   2.904315E+01   1.080910E+02   7.067509E+01   9.380788E+01   4.050400E+01   6.512722E+01   3.782561E+01   5.417440E+01   1.625325E+02   2.549385E+02   2.183861E+02   2.053912E+02   8.920361E+01   5.744236E+01   1.902301E+01   6.351860E+00   1.459167E+01   1.126899E+02   2.137580E+02   9.439169E+01   1.114628E+02   5.070349E+01   1.147268E+01   3.949236E+01   4.056361E+01   3.038346E+01   5.167249E+01   8.744701E+01   7.658247E+01   3.101425E+01   4.386992E+01   6.878825E+01   9.187449E+01   5.780782E+01   2.065008E+01   1.906462E+01   3.487743E+01   6.679295E+01   3.988198E+01   6.296288E+01   3.162419E+01   2.974571E+01   3.252662E+01   1.136789E+02   5.146228E+01   4.074208E+01   3.099596E+01   3.092748E+01   8.566473E+01   3.829999E+01   1.253447E+01   2.312726E+01   5.068492E+01   7.351361E+01   2.755847E+01   5.730491E+00   2.615563E+01   4.649720E+01   4.511345E+01   2.906043E+01   2.906043E+01   5.521497E+01   7.799606E+01   7.799606E+01   3.088557E+02   1.490599E+02   1.490599E+02   3.566183E+02   3.566183E+02   3.566183E+02   7.776185E+01   7.776185E+01   7.776185E+01   2.894044E+02   2.894044E+02   2.894044E+02   2.894044E+02   2.894044E+02   1.881650E+02   1.881650E+02   1.881650E+02   1.881650E+02   1.881650E+02   2.730889E+02   2.730889E+02   2.730889E+02   2.730889E+02   2.730889E+02   2.730889E+02   2.730889E+02   1.859105E+02   1.859105E+02   1.859105E+02   1.859105E+02   1.859105E+02   1.859105E+02   1.859105E+02   1.859105E+02   1.859105E+02   1.859105E+02   1.024428E+02   1.024428E+02   1.024428E+02   1.024428E+02   1.024428E+02   1.024428E+02   1.024428E+02   1.024428E+02   1.024428E+02   1.080086E+02   1.080086E+02   1.080086E+02   1.080086E+02   1.080086E+02   1.080086E+02   1.080086E+02   1.110675E+02   1.110675E+02   1.110675E+02   1.110675E+02   1.110675E+02   8.086500E+01   8.086500E+01   8.086500E+01   8.086500E+01   1.111360E+02   1.111360E+02   1.111360E+02   8.024891E+01   8.024891E+01   5.152319E+01   5.152319E+01   6.406535E+01   6.406535E+01   3.470054E+01   2.307667E+01   1.436684E+01   1.436684E+01   8.011115E+00   8.847400E+00   1.178869E+01   4.559270E+01   7.396717E+00   2.196216E+00   1.647513E+01   6.401713E+01   3.002972E+01   6.745336E+01   4.365377E+01   9.533266E+01   9.314175E+01   2.783494E+01   2.689869E+01   2.060965E+01   1.775067E+01   1.188974E+02   1.297292E+02   4.353362E+01   1.127474E+02   1.764406E+02   1.719245E+02   9.340234E+01   2.230877E+01   2.465336E+01   1.184374E+01   1.990423E+01   1.925903E+01   1.232179E+01   1.006038E+01   1.431253E+01   8.941653E+00   3.610448E+00   1.697567E+00   5.980734E+00   9.466364E+00   1.311555E+01   3.003102E+01
   5.910491E+01   5.557202E+01   5.959416E+00   1.062397E+01   7.963092E+00   2.172950E+01   5.914998E+01   6.640035E+01   6.719688E+01   4.309719E+01   3.498787E+01   1.052129E+01   6.366406E+00   1.428995E+01   5.094410E+01   6.342319E+01   1.302069E+01   1.084906E+01   1.547832E+01   2.517912E+01   1.084665E+01   3.941858E+01   7.959326E+01   1.758366E+02   8.852009E+01   1.558379E+02   5.318021E+01   2.619734E+01   2.054804E+01   4.326583E+01   4.320633E+01   1.445680E+02   1.436828E+02   5.883918E+01   5.963963E+01   4.414225E+01   5.489668E+01   1.486895E+02   2.428528E+02   2.359973E+02   1.180675E+02   9.203026E+01   3.547083E+01   3.263433E+01   4.586582E+01   2.353901E+01   2.928575E+01   5.856925E+01   1.576419E+02   2.284142E+02   1.343291E+02   4.517392E+01   2.278330E+01   2.660990E+01   4.688605E+01   4.532907E+01   7.159350E+01   8.167002E+01   6.922483E+01   3.690558E+01   5.420502E+01   4.960880E+01   1.064801E+02   4.080968E+01   2.259450E+01   3.671995E+01   5.076637E+01   7.887089E+01   2.624559E+01   3.629667E+01   3.549852E+01   1.595308E+01   1.793763E+01   8.052695E+01   7.410323E+01   6.176711E+01   4.089342E+01   4.391330E+01   5.671539E+01   1.337883E+01   1.850625E+01   1.612696E+01   6.953149E+01   9.444750E+01   1.767118E+01   5.295131E+00   1.041590E+01   1.967036E+01   3.785832E+01   2.360003E+01   2.360003E+01   7.201225E+01   9.076280E+01   9.076280E+01   2.031161E+02   1.282132E+02   1.282132E+02   2.092401E+02   2.092401E+02   2.092401E+02   1.210532E+02   1.210532E+02   1.210532E+02   3.169410E+02   3.169410E+02   3.169410E+02   3.169410E+02   3.169410E+02   3.119596E+02   3.119596E+02   3.119596E+02   3.119596E+02   3.119596E+02   2.587711E+02   2.587711E+02   2.587711E+02   2.587711E+02   2.587711E+02   2.587711E+02   2.587711E+02   3.175255E+02   3.175255E+02   3.175255E+02   3.175255E+02   3.175255E+02   3.175255E+02   3.175255E+02   3.175255E+02   3.175255E+02   3.175255E+02   2.612255E+02   2.612255E+02   2.612255E+02   2.612255E+02   2.612255E+02   2.612255E+02   2.612255E+02   2.612255E+02   2.612255E+02   1.800614E+02   1.800614E+02   1.800614E+02   1.800614E+02   1.800614E+02   1.800614E+02   1.800614E+02   1.627909E+02   1.627909E+02   1.627909E+02   1.627909E+02   1.627909E+02   9.627457E+01   9.627457E+01   9.627457E+01   9.627457E+01   9.358846E+01   9.358846E+01   9.358846E+01   6.168184E+01   6.168184E+01   4.955510E+01   4.955510E+01   5.681929E+01   5.681929E+01   3.768984E+01   2.337586E+01   3.119996E+01   3.119996E+01   1.578163E+01   9.356699E+00   9.072124E+00   4.008418E+01   1.747174E+01   3.483539E+00   3.707045E+01   4.381602E+01   6.897423E+01   5.649720E+01   5.066474E+01   1.915805E+02   7.166588E+01   4.603848E+01   2.996425E+01   2.054557E+01   2.728463E+01   8.645164E+01   8.326467E+01   1.072454E+02   1.671413E+02   1.351746E+02   2.245134E+02   3.336686E+01   1.597802E+01   2.739630E+01   9.386439E+00   2.236526E+01   1.006644E+01   1.601502E+01   8.143503E+00   3.925875E+01   6.824521E+00   5.557261E+00   1.080162E+00   5.678959E+00   1.266608E+01   1.535211E+01   3.151084E+01