# LPF package for  MODFLOW-2005, generated by Flopy.
        53    -1E+30         0  
         1
         0
   0.000000E+00
         0
         0
INTERNAL               1 (207E15.6) -1 #hk layer 1                    
   3.274467E+01   1.453384E+01   1.252071E+01   2.169251E+01   2.834632E+01   1.484371E+01   2.178696E+01   6.613742E+00   1.038860E+01   1.385874E+01   4.129083E+00   1.047193E+01   2.333804E+01   1.121551E+02   6.635462E+01   5.185642E+01   1.142791E+02   9.079114E+01   1.317744E+02   2.991428E+01   2.872937E+01   2.653122E+01   1.294377E+02   1.724348E+02   6.930684E+01   6.060126E+01   7.109514E+01   3.389373E+01   4.283562E+01   4.271998E+01   6.205771E+01   6.063675E+01   3.099537E+01   1.967162E+01   3.226339E+01   3.283730E+01   3.666813E+01   2.928448E+01   1.920210E+01   2.579952E+01   2.388496E+01   3.283306E+01   1.407339E+02   4.860193E+02   3.237744E+02   5.207814E+02   1.998664E+02   9.375684E+01   6.578193E+01   5.969345E+01   7.992366E+01   3.758834E+01   7.886584E+00   7.185146E+00   4.686957E+00   7.357522E+00   2.760106E+01   9.875176E+01   1.001994E+02   3.244470E+01   7.818360E+01   2.336283E+01   8.500588E+01   7.818980E+01   1.088359E+02   7.450856E+01   3.508849E+01   5.238421E+01   3.759052E+01   3.211324E+01   6.842213E+01   4.324728E+01   1.265673E+01   1.122365E+01   3.109073E+00   8.961870E+00   2.979890E+01   6.082936E+01   8.081390E+01   6.594276E+01   5.042287E+01   7.301621E+01   9.962909E+01   7.114909E+01   5.051313E+01   6.612520E+01   1.595293E+02   2.498068E+02   1.105361E+02   1.562569E+02   1.562569E+02   8.544395E+01   1.504360E+02   1.504360E+02   6.469647E+02   1.481277E+02   1.481277E+02   8.876217E+01   8.876217E+01   8.876217E+01   4.222957E+01   4.222957E+01   4.222957E+01   2.129267E+01   2.129267E+01   2.129267E+01   2.129267E+01   2.129267E+01   2.266719E+01   2.266719E+01   2.266719E+01   2.266719E+01   2.266719E+01   1.681705E+01   1.681705E+01   1.681705E+01   1.681705E+01   1.681705E+01   1.681705E+01   1.681705E+01   8.098106E+01   8.098106E+01   8.098106E+01   8.098106E+01   8.098106E+01   8.098106E+01   8.098106E+01   8.098106E+01   8.098106E+01   8.098106E+01   1.429262E+02   1.429262E+02   1.429262E+02   1.429262E+02   1.429262E+02   1.429262E+02   1.429262E+02   1.429262E+02   1.429262E+02   4.911064E+01   4.911064E+01   4.911064E+01   4.911064E+01   4.911064E+01   4.911064E+01   4.911064E+01   3.295660E+01   3.295660E+01   3.295660E+01   3.295660E+01   3.295660E+01   4.459468E+01   4.459468E+01   4.459468E+01   4.459468E+01   1.479796E+02   1.479796E+02   1.479796E+02   4.608701E+02   4.608701E+02   3.589449E+02   3.589449E+02   1.461335E+02   1.461335E+02   8.507684E+01   3.950840E+01   3.186961E+01   3.186961E+01   6.291846E+01   3.214898E+01   1.891857E+01   2.272145E+01   1.041228E+02   6.482097E+01   1.183948E+02   4.640007E+01   2.044376E+01   8.709974E+01   8.583501E+01   4.580939E+01   6.406516E+01   2.875290E+01   4.609307E+01   1.048206E+02   1.877124E+02   1.821292E+02   3.849969E+01   8.168337E+01   9.412221E+01   9.360833E+01   9.575634E+01   5.004223E+01   5.553109E+01   2.252756E+01   1.887490E+01   6.883060E+01   6.520986E+01   6.356414E+01   3.479292E+01   3.162877E+01   3.060641E+01   1.047102E+02   1.078084E+02   1.200820E+02   9.865846E+01   6.560080E+01   2.264244E+01
   2.205317E+01   2.551851E+01   2.036667E+01   3.099881E+01   6.217747E+01   3.175551E+01   2.690149E+01   7.234961E+00   7.600248E+00   1.194735E+01   6.034685E+00   7.534495E+00   1.843165E+01   1.251271E+02   1.031180E+02   1.301826E+02   6.130059E+01   4.066313E+01   1.284216E+02   5.603935E+01   6.333533E+01   1.719695E+01   9.718314E+01   8.792377E+01   6.878800E+01   8.298778E+01   3.930326E+01   4.148410E+01   2.524051E+01   2.408022E+01   2.290326E+01   4.682665E+01   2.327057E+01   1.759592E+01   4.033134E+01   6.987193E+01   7.907148E+01   5.630479E+01   3.769729E+01   2.009676E+01   2.397237E+01   2.642358E+01   6.729714E+01   2.091058E+02   2.069150E+02   1.703492E+02   8.654108E+01   3.376512E+01   6.884363E+01   6.030932E+01   5.668565E+01   3.297617E+01   2.503087E+01   6.910299E+00   5.095996E+00   1.052600E+01   7.394942E+01   6.189643E+01   1.301171E+02   5.880844E+01   1.061458E+02   3.610397E+01   2.159937E+02   4.712428E+01   6.209016E+01   6.557518E+01   2.577388E+01   2.725095E+01   1.562242E+01   2.176218E+01   2.430011E+01   3.135510E+01   1.464144E+01   2.410398E+01   6.095201E+00   5.609482E+00   2.769378E+01   7.598358E+01   1.098280E+02   2.452273E+01   4.829361E+01   3.997761E+01   5.028645E+01   5.484956E+01   4.230775E+01   6.558269E+01   3.398492E+02   4.237897E+02   9.709152E+01   1.826544E+02   1.826544E+02   8.716724E+01   1.640375E+02   1.640375E+02   2.878013E+02   9.655952E+01   9.655952E+01   8.851138E+01   8.851138E+01   8.851138E+01   6.097887E+01   6.097887E+01   6.097887E+01   3.725420E+01   3.725420E+01   3.725420E+01   3.725420E+01   3.725420E+01   3.287399E+01   3.287399E+01   3.287399E+01   3.287399E+01   3.287399E+01   3.087241E+01   3.087241E+01   3.087241E+01   3.087241E+01   3.087241E+01   3.087241E+01   3.087241E+01   9.987123E+01   9.987123E+01   9.987123E+01   9.987123E+01   9.987123E+01   9.987123E+01   9.987123E+01   9.987123E+01   9.987123E+01   9.987123E+01   1.441675E+02   1.441675E+02   1.441675E+02   1.441675E+02   1.441675E+02   1.441675E+02   1.441675E+02   1.441675E+02   1.441675E+02   2.311278E+01   2.311278E+01   2.311278E+01   2.311278E+01   2.311278E+01   2.311278E+01   2.311278E+01   4.726634E+01   4.726634E+01   4.726634E+01   4.726634E+01   4.726634E+01   8.189565E+01   8.189565E+01   8.189565E+01   8.189565E+01   9.215339E+01   9.215339E+01   9.215339E+01   2.119140E+02   2.119140E+02   2.429129E+02   2.429129E+02   1.405784E+02   1.405784E+02   1.086448E+02   6.200658E+01   5.506196E+01   5.506196E+01   4.283457E+01   1.612432E+01   3.617967E+01   1.593644E+01   1.067122E+02   4.462687E+01   1.332074E+02   4.800138E+01   5.152105E+01   7.703123E+01   4.859800E+01   3.261294E+01   4.973395E+01   3.081899E+01   2.700258E+01   1.105696E+02   1.617208E+02   1.703181E+02   2.830242E+01   8.120860E+01   5.868543E+01   1.683933E+02   4.173523E+01   2.831737E+01   8.714314E+00   1.428251E+01   1.348999E+01   7.920918E+01   1.830730E+02   7.214070E+01   3.439912E+01   3.799162E+01   2.488220E+01   4.892279E+01   8.438098E+01   1.421852E+02   1.847101E+02   1.788960E+02   6.740556E+01
   2.661489E+01   4.258730E+01   2.604781E+01   4.788222E+01   3.987092E+01   2.498034E+01   3.179859E+01   2.216427E+01   8.700408E+00   1.610653E+01   1.177174E+01   1.789737E+01   2.794898E+01   1.355630E+02   1.036483E+02   1.251637E+02   3.910685E+01   4.411953E+01   4.740644E+01   5.313284E+01   9.953593E+01   6.251064E+01   5.486357E+01   1.204252E+02   9.946356E+01   7.400278E+01   3.089965E+01   4.514114E+01   2.049612E+01   1.733375E+01   3.492256E+01   2.173758E+01   5.575175E+00   7.887312E+00   2.682356E+01   5.994104E+01   7.598917E+01   5.155848E+01   2.515160E+01   1.035936E+01   3.593460E+01   1.701584E+01   5.791984E+01   1.130005E+02   2.277737E+02   8.229040E+01   6.582626E+01   3.258654E+01   3.244133E+01   1.925162E+01   1.997316E+01   6.842814E+01   3.164707E+01   2.653950E+01   9.738100E+00   1.703534E+01   9.627177E+01   7.041940E+01   1.518340E+02   4.521600E+01   9.286207E+01   5.953931E+01   1.218243E+02   1.844281E+01   3.024357E+01   4.591819E+01   3.297912E+01   3.224694E+01   1.002569E+01   9.013686E+00   1.966668E+01   1.491039E+01   1.380790E+01   1.716229E+01   8.230873E+00   1.021530E+01   5.445068E+01   5.331598E+01   4.279312E+01   6.923119E+01   7.758427E+01   3.764202E+01   2.792596E+01   1.699618E+01   8.007568E+01   9.660939E+01   2.247892E+02   3.665584E+02   8.716243E+01   9.242918E+01   9.242918E+01   5.422789E+01   1.574781E+02   1.574781E+02   8.926160E+01   1.520065E+02   1.520065E+02   1.308785E+02   1.308785E+02   1.308785E+02   8.227193E+01   8.227193E+01   8.227193E+01   3.494698E+01   3.494698E+01   3.494698E+01   3.494698E+01   3.494698E+01   2.848016E+01   2.848016E+01   2.848016E+01   2.848016E+01   2.848016E+01   3.195550E+01   3.195550E+01   3.195550E+01   3.195550E+01   3.195550E+01   3.195550E+01   3.195550E+01   5.669813E+01   5.669813E+01   5.669813E+01   5.669813E+01   5.669813E+01   5.669813E+01   5.669813E+01   5.669813E+01   5.669813E+01   5.669813E+01   9.343514E+01   9.343514E+01   9.343514E+01   9.343514E+01   9.343514E+01   9.343514E+01   9.343514E+01   9.343514E+01   9.343514E+01   5.178325E+01   5.178325E+01   5.178325E+01   5.178325E+01   5.178325E+01   5.178325E+01   5.178325E+01   5.353831E+01   5.353831E+01   5.353831E+01   5.353831E+01   5.353831E+01   5.721906E+01   5.721906E+01   5.721906E+01   5.721906E+01   5.386857E+01   5.386857E+01   5.386857E+01   2.527561E+02   2.527561E+02   3.135583E+02   3.135583E+02   1.573871E+02   1.573871E+02   1.783592E+02   1.115310E+02   5.123346E+01   5.123346E+01   3.278766E+01   1.977194E+01   3.519511E+01   3.182977E+01   3.531527E+01   6.320164E+01   3.926709E+01   7.742276E+01   1.457995E+02   3.844124E+01   2.482741E+01   4.801542E+01   5.471433E+01   2.323471E+01   3.108591E+01   1.837574E+02   2.618199E+02   2.534283E+02   7.670589E+01   8.674169E+01   5.971101E+01   8.284642E+01   4.929318E+01   2.626632E+01   9.510209E+00   1.819547E+01   8.687825E+00   5.768713E+01   1.243318E+02   5.088129E+01   2.049773E+01   5.691892E+01   3.089514E+01   4.976999E+01   2.208596E+02   2.509689E+02   3.429247E+02   1.999265E+02   7.604110E+01
   2.300133E+01   4.336723E+01   2.448157E+01   3.791456E+01   3.328162E+01   4.008477E+01   2.627846E+01   3.436885E+01   1.553237E+01   1.648527E+01   1.197610E+01   3.055521E+01   4.459051E+01   6.801427E+01   6.874500E+01   9.727226E+01   6.519572E+01   4.142678E+01   4.694216E+01   5.997245E+01   8.319741E+01   6.865361E+01   7.536754E+01   9.287889E+01   1.099937E+02   1.648817E+01   2.179412E+01   4.172516E+01   1.324755E+01   7.631694E+00   1.580354E+01   9.232688E+00   3.177935E+00   3.861188E+00   1.518328E+01   1.306190E+01   2.511687E+01   4.124862E+01   2.623112E+01   2.061149E+01   2.769583E+01   9.849828E+00   1.739177E+01   3.664025E+01   6.141417E+01   6.419989E+01   1.586816E+01   2.696190E+01   2.880565E+01   1.620080E+01   2.288139E+01   1.120753E+02   4.426827E+01   3.266036E+01   1.589622E+01   2.738065E+01   4.474353E+01   2.463928E+01   3.595844E+01   2.362238E+01   5.607791E+01   6.543411E+01   6.478751E+01   1.173731E+01   2.544710E+01   2.090090E+01   2.242736E+01   9.000618E+00   6.795905E+00   8.337327E+00   1.522725E+01   1.631962E+01   8.446751E+00   7.835332E+00   5.825933E+00   3.685285E+01   4.621066E+01   3.652256E+01   5.219653E+01   5.354185E+01   6.593125E+01   2.854010E+01   4.241451E+01   1.832148E+01   3.484933E+01   5.719675E+01   1.820155E+02   2.267773E+02   6.385507E+01   7.438162E+01   7.438162E+01   4.044216E+01   6.217445E+01   6.217445E+01   9.487201E+01   1.246043E+02   1.246043E+02   6.415356E+01   6.415356E+01   6.415356E+01   3.189748E+01   3.189748E+01   3.189748E+01   5.037857E+01   5.037857E+01   5.037857E+01   5.037857E+01   5.037857E+01   1.693924E+01   1.693924E+01   1.693924E+01   1.693924E+01   1.693924E+01   3.104713E+01   3.104713E+01   3.104713E+01   3.104713E+01   3.104713E+01   3.104713E+01   3.104713E+01   4.922902E+01   4.922902E+01   4.922902E+01   4.922902E+01   4.922902E+01   4.922902E+01   4.922902E+01   4.922902E+01   4.922902E+01   4.922902E+01   6.719313E+01   6.719313E+01   6.719313E+01   6.719313E+01   6.719313E+01   6.719313E+01   6.719313E+01   6.719313E+01   6.719313E+01   3.322696E+01   3.322696E+01   3.322696E+01   3.322696E+01   3.322696E+01   3.322696E+01   3.322696E+01   3.682364E+01   3.682364E+01   3.682364E+01   3.682364E+01   3.682364E+01   4.954250E+01   4.954250E+01   4.954250E+01   4.954250E+01   5.130462E+01   5.130462E+01   5.130462E+01   9.231705E+01   9.231705E+01   2.642545E+02   2.642545E+02   1.376594E+02   1.376594E+02   1.296935E+02   1.447023E+02   2.279724E+01   2.279724E+01   2.467171E+01   1.720130E+01   4.710398E+01   7.501065E+01   5.286152E+01   1.239957E+02   2.872231E+01   9.190540E+01   2.741996E+02   4.121581E+01   1.534184E+01   6.889155E+01   4.985203E+01   3.078739E+01   6.152902E+01   9.309673E+01   1.118953E+02   1.545148E+02   2.132256E+02   7.459470E+01   5.430304E+01   5.051545E+01   4.604194E+01   2.524187E+01   2.075653E+01   1.408789E+01   2.455753E+01   3.993925E+01   8.191697E+01   3.195899E+01   3.066628E+01   5.250673E+01   4.442025E+01   5.956424E+01   1.771451E+02   3.111683E+02   4.037734E+02   3.043415E+02   7.280716E+01
   1.649666E+01   4.464923E+01   2.374763E+01   1.899381E+01   3.651355E+01   6.833027E+01   3.148178E+01   2.040866E+01   2.594840E+01   1.911700E+01   2.667267E+01   4.497033E+01   1.347891E+02   5.099782E+01   5.062825E+01   1.009857E+02   3.427705E+01   2.229627E+01   5.511033E+01   3.818557E+01   6.224465E+01   5.285158E+01   4.665636E+01   1.134068E+02   6.373195E+01   1.722459E+01   1.751912E+01   3.875923E+01   1.316567E+01   4.059363E+00   1.013689E+01   6.235416E+00   2.715411E+00   5.106430E+00   1.255727E+01   2.716138E+01   4.343415E+01   7.196424E+01   3.252344E+01   1.368843E+01   1.915420E+01   7.016400E+00   2.422303E+01   1.847120E+01   3.388459E+01   4.329084E+01   1.714352E+01   1.145100E+01   4.032981E+01   4.020223E+01   3.712502E+01   1.415086E+02   8.964934E+01   2.863532E+01   2.037944E+01   1.698506E+01   4.651189E+01   3.091249E+01   2.440792E+01   2.146028E+01   5.223078E+01   5.412756E+01   4.292047E+01   1.748999E+01   1.089871E+01   2.881673E+01   1.619731E+01   6.605970E+00   5.106878E+00   5.953098E+00   9.978749E+00   1.291362E+01   7.412162E+00   6.085068E+00   5.685084E+00   1.638234E+01   3.455423E+01   1.566491E+01   7.032305E+01   5.320414E+01   2.828876E+01   2.878264E+01   2.839210E+01   2.256536E+01   2.519392E+01   4.800043E+01   1.193798E+02   1.367853E+02   5.271239E+01   9.499374E+01   9.499374E+01   6.598869E+01   4.315871E+01   4.315871E+01   6.554288E+01   8.876825E+01   8.876825E+01   1.272343E+02   1.272343E+02   1.272343E+02   1.957034E+01   1.957034E+01   1.957034E+01   2.449520E+01   2.449520E+01   2.449520E+01   2.449520E+01   2.449520E+01   2.090539E+01   2.090539E+01   2.090539E+01   2.090539E+01   2.090539E+01   1.729387E+01   1.729387E+01   1.729387E+01   1.729387E+01   1.729387E+01   1.729387E+01   1.729387E+01   6.344784E+01   6.344784E+01   6.344784E+01   6.344784E+01   6.344784E+01   6.344784E+01   6.344784E+01   6.344784E+01   6.344784E+01   6.344784E+01   8.076692E+01   8.076692E+01   8.076692E+01   8.076692E+01   8.076692E+01   8.076692E+01   8.076692E+01   8.076692E+01   8.076692E+01   2.410119E+01   2.410119E+01   2.410119E+01   2.410119E+01   2.410119E+01   2.410119E+01   2.410119E+01   4.087959E+01   4.087959E+01   4.087959E+01   4.087959E+01   4.087959E+01   6.648556E+01   6.648556E+01   6.648556E+01   6.648556E+01   6.386277E+01   6.386277E+01   6.386277E+01   7.786777E+01   7.786777E+01   6.870738E+01   6.870738E+01   9.153617E+01   9.153617E+01   1.028422E+02   1.232327E+02   4.561659E+01   4.561659E+01   4.665887E+01   1.659015E+01   3.580452E+01   8.989628E+01   4.839163E+01   2.550475E+02   5.310107E+01   6.823312E+01   9.141286E+01   3.569857E+01   1.146381E+02   9.488294E+01   3.915477E+01   3.393456E+01   4.380999E+01   6.232726E+01   1.010723E+02   1.433175E+02   1.462797E+02   6.999207E+01   5.276303E+01   1.769330E+01   3.919955E+01   3.733672E+01   4.073997E+01   3.352147E+01   3.167621E+01   4.293470E+01   3.453285E+01   2.925830E+01   4.139452E+01   7.415905E+01   3.192658E+01   1.347861E+01   1.702701E+02   4.692409E+02   5.097542E+02   2.639551E+02   9.020348E+01
   2.026085E+01   2.798249E+01   1.617367E+01   1.635024E+01   2.870689E+01   7.121708E+01   3.089896E+01   2.577289E+01   2.273559E+01   3.851453E+01   5.802139E+01   1.509221E+02   3.780953E+02   4.504962E+01   4.693655E+01   6.363706E+01   7.663376E+01   3.273806E+01   4.528715E+01   6.645566E+01   1.843779E+02   1.226745E+02   7.856785E+01   1.806306E+02   1.083819E+02   2.361704E+01   1.870798E+01   1.391445E+01   6.420813E+00   6.102836E+00   6.625934E+00   1.717007E+01   3.549080E+00   6.939393E+00   5.075212E+00   2.741466E+01   6.898058E+01   7.398183E+01   1.767159E+01   2.098950E+01   1.178114E+01   7.016258E+00   1.449408E+01   1.086134E+01   3.160649E+01   2.571227E+01   3.132897E+01   1.266799E+01   3.695803E+01   3.249461E+01   3.787996E+01   9.910889E+01   1.436325E+02   3.269689E+01   9.971355E+00   1.233115E+01   4.001125E+01   2.168546E+01   1.634506E+01   2.449286E+01   3.371391E+01   2.824163E+01   3.445666E+01   1.230385E+01   5.803130E+00   1.938009E+01   3.597881E+01   4.942529E+00   6.375084E+00   6.348147E+00   8.880450E+00   6.014988E+00   3.321050E+00   3.823552E+00   8.866343E+00   1.187126E+01   2.757216E+01   4.240388E+01   6.729384E+01   4.206318E+01   5.167556E+01   2.657872E+01   2.330048E+01   2.349236E+01   3.310936E+01   4.082907E+01   1.063511E+02   1.513965E+02   1.134217E+02   7.162820E+01   7.162820E+01   1.025677E+02   3.636975E+01   3.636975E+01   3.648573E+01   6.998072E+01   6.998072E+01   4.430276E+01   4.430276E+01   4.430276E+01   1.529066E+01   1.529066E+01   1.529066E+01   2.692981E+01   2.692981E+01   2.692981E+01   2.692981E+01   2.692981E+01   4.619843E+01   4.619843E+01   4.619843E+01   4.619843E+01   4.619843E+01   4.442721E+01   4.442721E+01   4.442721E+01   4.442721E+01   4.442721E+01   4.442721E+01   4.442721E+01   4.662527E+01   4.662527E+01   4.662527E+01   4.662527E+01   4.662527E+01   4.662527E+01   4.662527E+01   4.662527E+01   4.662527E+01   4.662527E+01   1.057609E+02   1.057609E+02   1.057609E+02   1.057609E+02   1.057609E+02   1.057609E+02   1.057609E+02   1.057609E+02   1.057609E+02   6.468526E+01   6.468526E+01   6.468526E+01   6.468526E+01   6.468526E+01   6.468526E+01   6.468526E+01   6.005126E+01   6.005126E+01   6.005126E+01   6.005126E+01   6.005126E+01   3.701416E+01   3.701416E+01   3.701416E+01   3.701416E+01   9.357187E+01   9.357187E+01   9.357187E+01   1.279170E+02   1.279170E+02   4.290475E+01   4.290475E+01   7.153669E+01   7.153669E+01   1.063912E+02   1.970921E+02   4.685728E+01   4.685728E+01   3.220948E+01   1.967146E+01   5.287315E+01   1.567885E+02   6.374121E+01   1.276036E+02   6.257682E+01   1.045887E+02   8.579812E+01   6.602620E+01   1.395157E+02   1.031625E+02   3.853927E+01   3.505639E+01   2.783046E+01   9.726427E+01   1.406805E+02   6.202022E+01   5.609333E+01   7.402806E+01   1.990037E+01   2.170482E+01   6.062898E+01   8.323577E+01   2.788313E+01   4.189152E+01   3.409131E+01   2.723068E+01   3.520970E+01   3.018891E+01   8.571603E+01   4.579432E+01   2.230292E+01   1.262765E+01   1.817276E+02   1.128645E+02   2.471775E+02   1.801494E+02   1.360501E+02
   4.194833E+01   2.444675E+01   9.963448E+00   1.084408E+01   1.863356E+01   5.025611E+01   2.537730E+01   3.829796E+01   1.220929E+01   1.301896E+01   3.817579E+01   9.018692E+01   1.728296E+02   1.054800E+02   1.181267E+02   4.776183E+01   8.516700E+01   7.472381E+01   3.683548E+01   4.915102E+01   1.195797E+02   1.372350E+02   1.039800E+02   1.885371E+02   1.399894E+02   1.608921E+01   2.747117E+01   1.673615E+01   9.624775E+00   5.289238E+00   5.367705E+00   1.046436E+01   3.888687E+00   5.064080E+00   6.809676E+00   3.341735E+01   7.660748E+01   8.068128E+01   3.275470E+01   1.585883E+01   1.169402E+01   8.253359E+00   1.475636E+01   7.407649E+00   3.265241E+01   3.169040E+01   2.281063E+01   1.429406E+01   3.608527E+01   2.914122E+01   4.971528E+01   5.529868E+01   7.919781E+01   7.935781E+01   2.326774E+01   3.234023E+01   2.208792E+01   1.810263E+01   3.739309E+01   3.077799E+01   1.479506E+01   1.614173E+01   2.757771E+01   1.718036E+01   2.324635E+01   3.250460E+01   2.403436E+01   6.767604E+00   6.670253E+00   1.284029E+01   9.365778E+00   4.978699E+00   2.938170E+00   4.833422E+00   8.798598E+00   2.476689E+01   8.435294E+01   8.497124E+01   3.686546E+01   7.825788E+01   8.254335E+01   3.279363E+01   7.929108E+01   2.769185E+01   3.159396E+01   2.880947E+01   6.840457E+01   8.334007E+01   9.461358E+01   6.739870E+01   6.739870E+01   8.396406E+01   6.638634E+01   6.638634E+01   4.632093E+01   4.607880E+01   4.607880E+01   6.651427E+01   6.651427E+01   6.651427E+01   4.257043E+01   4.257043E+01   4.257043E+01   1.619446E+01   1.619446E+01   1.619446E+01   1.619446E+01   1.619446E+01   3.739527E+01   3.739527E+01   3.739527E+01   3.739527E+01   3.739527E+01   8.461093E+01   8.461093E+01   8.461093E+01   8.461093E+01   8.461093E+01   8.461093E+01   8.461093E+01   4.598848E+01   4.598848E+01   4.598848E+01   4.598848E+01   4.598848E+01   4.598848E+01   4.598848E+01   4.598848E+01   4.598848E+01   4.598848E+01   6.455601E+01   6.455601E+01   6.455601E+01   6.455601E+01   6.455601E+01   6.455601E+01   6.455601E+01   6.455601E+01   6.455601E+01   1.351553E+02   1.351553E+02   1.351553E+02   1.351553E+02   1.351553E+02   1.351553E+02   1.351553E+02   5.280136E+01   5.280136E+01   5.280136E+01   5.280136E+01   5.280136E+01   4.449775E+01   4.449775E+01   4.449775E+01   4.449775E+01   5.563717E+01   5.563717E+01   5.563717E+01   1.337396E+02   1.337396E+02   7.309796E+01   7.309796E+01   8.038559E+01   8.038559E+01   2.008078E+02   2.040423E+02   8.280873E+01   8.280873E+01   7.374306E+01   2.146100E+01   6.540062E+01   1.822070E+02   2.103578E+02   9.269552E+01   7.288973E+01   7.664380E+01   1.277830E+02   6.070099E+01   1.783648E+02   1.063687E+02   3.074712E+01   6.951411E+01   2.722613E+01   1.134378E+02   2.357693E+02   6.745425E+01   8.310807E+01   6.760387E+01   2.698544E+01   3.261220E+01   6.196716E+01   6.849386E+01   6.061928E+01   8.374436E+01   9.948257E+01   2.632202E+01   3.911258E+01   4.935414E+01   6.404310E+01   4.627602E+01   6.648169E+00   6.099827E+00   5.954454E+01   8.324352E+01   2.076247E+02   2.646138E+02   8.229453E+01
   3.420893E+01   2.113163E+01   2.962412E+01   1.303265E+01   1.130958E+01   3.282341E+01   1.019396E+01   3.165436E+01   8.086869E+00   7.100285E+00   2.606266E+01   5.679781E+01   1.321230E+02   1.404861E+02   1.347497E+02   2.845015E+01   4.486017E+01   1.982010E+02   4.521653E+01   6.018310E+01   1.430966E+02   3.895788E+02   1.916653E+02   1.684577E+02   2.985349E+02   2.896416E+01   2.930886E+01   2.714774E+01   9.369422E+00   8.825308E+00   3.478267E+00   9.578691E+00   9.207200E+00   4.507881E+00   1.233032E+01   1.855510E+01   1.073043E+02   6.510853E+01   1.300128E+01   1.176407E+01   6.578594E+00   1.576631E+01   1.381546E+01   1.518654E+01   1.254469E+01   1.649433E+01   1.696651E+01   9.628988E+00   1.020427E+01   1.112685E+01   3.392043E+01   5.480579E+01   1.737310E+02   6.657302E+01   3.776832E+01   7.418154E+01   3.594532E+01   4.996004E+01   4.388342E+01   3.227867E+01   1.199619E+01   1.481371E+01   1.313050E+01   1.387289E+01   2.747872E+01   2.531932E+01   1.901294E+01   1.562974E+01   1.643680E+01   1.180921E+01   7.861665E+00   8.233589E+00   3.106958E+00   3.462546E+00   6.590848E+00   3.914621E+01   4.700998E+01   6.976884E+01   5.676027E+01   6.155019E+01   6.783823E+01   5.779139E+01   1.098127E+02   2.851893E+01   3.620667E+01   4.936264E+01   4.311419E+01   1.190072E+02   6.466610E+01   5.806830E+01   5.806830E+01   5.674457E+01   9.593420E+01   9.593420E+01   1.092492E+02   9.300491E+01   9.300491E+01   1.506663E+02   1.506663E+02   1.506663E+02   4.548421E+01   4.548421E+01   4.548421E+01   1.244268E+01   1.244268E+01   1.244268E+01   1.244268E+01   1.244268E+01   2.528428E+01   2.528428E+01   2.528428E+01   2.528428E+01   2.528428E+01   7.269636E+01   7.269636E+01   7.269636E+01   7.269636E+01   7.269636E+01   7.269636E+01   7.269636E+01   3.342414E+01   3.342414E+01   3.342414E+01   3.342414E+01   3.342414E+01   3.342414E+01   3.342414E+01   3.342414E+01   3.342414E+01   3.342414E+01   6.777087E+01   6.777087E+01   6.777087E+01   6.777087E+01   6.777087E+01   6.777087E+01   6.777087E+01   6.777087E+01   6.777087E+01   1.710004E+02   1.710004E+02   1.710004E+02   1.710004E+02   1.710004E+02   1.710004E+02   1.710004E+02   5.364114E+01   5.364114E+01   5.364114E+01   5.364114E+01   5.364114E+01   2.207994E+01   2.207994E+01   2.207994E+01   2.207994E+01   2.952124E+01   2.952124E+01   2.952124E+01   1.127561E+02   1.127561E+02   1.909598E+02   1.909598E+02   1.475101E+02   1.475101E+02   1.798136E+02   1.439586E+02   7.278699E+01   7.278699E+01   6.088888E+01   3.589131E+01   8.809347E+01   8.320103E+01   3.613777E+02   2.427303E+02   1.048904E+02   1.165044E+02   7.186823E+01   5.538703E+01   9.004138E+01   7.938946E+01   4.325574E+01   1.219309E+02   1.410135E+02   8.609808E+01   1.340347E+02   9.050925E+01   1.154028E+02   9.538522E+01   3.969029E+01   4.376721E+01   4.420969E+01   6.642684E+01   1.822368E+02   1.053330E+02   1.057724E+02   5.934612E+01   3.145488E+01   3.399902E+01   4.378114E+01   3.637175E+01   1.001126E+01   3.319451E+00   3.392336E+01   6.814703E+01   3.142120E+02   2.372997E+02   1.390591E+02
   9.921006E+00   2.893674E+01   1.510456E+01   1.466388E+01   2.513531E+01   3.642878E+01   4.071509E+01   2.718056E+01   2.777316E+01   2.185616E+01   4.332171E+01   4.605261E+01   1.320392E+02   1.138879E+02   8.643018E+01   3.015399E+01   7.697999E+01   6.976144E+01   6.687187E+01   1.273736E+02   1.843032E+02   4.653971E+02   3.739810E+02   1.049786E+02   2.963594E+02   5.073558E+01   3.961488E+01   4.563038E+01   2.680684E+01   1.694928E+01   1.420060E+00   6.020910E+00   4.201805E+00   3.360342E+00   1.032937E+01   1.710016E+01   9.072047E+01   3.817377E+01   1.818262E+01   9.481152E+00   9.127367E+00   1.792740E+01   1.816376E+01   1.467130E+01   5.889654E+00   1.350496E+01   1.814306E+01   1.246295E+01   1.411318E+01   1.479773E+01   4.117727E+01   3.160200E+01   8.809858E+01   1.067571E+02   6.973022E+01   8.676012E+01   6.527094E+01   4.319213E+01   7.079590E+01   3.162034E+01   1.595674E+01   1.434340E+01   9.120857E+00   3.298108E+01   3.983925E+01   3.284393E+01   3.406871E+01   3.452945E+01   3.809496E+01   3.565047E+01   1.561746E+01   9.204131E+00   1.843645E+00   2.827730E+00   5.509789E+00   2.563625E+01   1.925613E+01   3.788102E+01   4.330884E+01   6.475498E+01   1.047735E+02   1.318316E+02   7.859408E+01   3.027538E+01   2.975962E+01   3.016329E+01   1.507429E+01   6.799934E+01   6.873740E+01   1.587325E+01   1.587325E+01   2.777356E+01   8.976275E+01   8.976275E+01   8.389568E+01   3.835053E+01   3.835053E+01   1.471430E+02   1.471430E+02   1.471430E+02   1.206628E+02   1.206628E+02   1.206628E+02   2.983661E+01   2.983661E+01   2.983661E+01   2.983661E+01   2.983661E+01   3.511980E+01   3.511980E+01   3.511980E+01   3.511980E+01   3.511980E+01   5.174574E+01   5.174574E+01   5.174574E+01   5.174574E+01   5.174574E+01   5.174574E+01   5.174574E+01   5.765345E+01   5.765345E+01   5.765345E+01   5.765345E+01   5.765345E+01   5.765345E+01   5.765345E+01   5.765345E+01   5.765345E+01   5.765345E+01   9.389687E+01   9.389687E+01   9.389687E+01   9.389687E+01   9.389687E+01   9.389687E+01   9.389687E+01   9.389687E+01   9.389687E+01   1.630052E+02   1.630052E+02   1.630052E+02   1.630052E+02   1.630052E+02   1.630052E+02   1.630052E+02   6.207081E+01   6.207081E+01   6.207081E+01   6.207081E+01   6.207081E+01   2.257880E+01   2.257880E+01   2.257880E+01   2.257880E+01   3.269833E+01   3.269833E+01   3.269833E+01   6.215889E+01   6.215889E+01   1.632732E+02   1.632732E+02   1.164604E+02   1.164604E+02   1.852254E+02   1.000462E+02   7.214547E+01   7.214547E+01   3.858325E+01   3.403046E+01   7.036803E+01   3.772847E+01   1.836755E+02   5.992778E+02   1.290447E+02   1.009660E+02   8.298405E+01   4.337910E+01   4.993526E+01   7.119709E+01   6.976173E+01   1.272842E+02   1.415112E+02   5.787622E+01   1.966845E+02   4.125799E+01   5.298742E+01   9.460111E+01   3.685459E+01   2.189256E+01   4.441536E+01   5.889558E+01   3.160735E+02   2.032321E+02   9.743687E+01   3.865040E+01   4.495105E+01   1.731936E+01   2.115810E+01   3.173053E+01   1.291856E+01   6.334795E+00   1.169829E+01   3.691954E+01   1.056579E+02   1.097234E+02   2.665821E+02