# LPF package for  MODFLOW-2005, generated by Flopy.
        53    -1E+30         0  
         1
         0
   0.000000E+00
         0
         0
INTERNAL               1 (207E15.6) -1 #hk layer 1                    
   4.473284E+01   4.894516E+01   1.920255E+02   1.488819E+02   1.023021E+02   6.035922E+01   7.917860E+01   6.908762E+01   7.872417E+01   9.334909E+01   2.030536E+02   2.118618E+02   4.817815E+02   1.441565E+02   2.351695E+02   1.312695E+02   3.047777E+02   1.279138E+02   1.310332E+02   9.669332E+01   6.481472E+01   1.235991E+02   3.131156E+01   4.968678E+01   4.083819E+01   4.704446E+01   5.855321E+01   4.869439E+01   7.864725E+01   1.142108E+02   5.823737E+01   7.319146E+01   5.415075E+01   2.192576E+01   6.683633E+01   6.534523E+01   2.538238E+01   2.634952E+01   3.954989E+01   8.529514E+01   1.485590E+02   8.271235E+01   5.197816E+01   5.251899E+01   8.277477E+01   4.107705E+01   2.966958E+01   6.557581E+01   4.820501E+01   1.421070E+02   2.056116E+02   3.500950E+02   3.449066E+02   2.772683E+02   1.416875E+02   6.779399E+02   1.580818E+02   1.017158E+02   6.165722E+01   3.761407E+01   2.545016E+01   2.720593E+01   4.929602E+01   6.517833E+01   6.203754E+01   3.182923E+01   3.187910E+01   1.058059E+02   1.588147E+02   1.327523E+02   5.738727E+01   8.126441E+01   2.625303E+01   5.693022E+01   1.029387E+02   7.645765E+01   2.275746E+02   1.026311E+02   9.794143E+01   7.962608E+01   2.927092E+01   2.462855E+01   1.327354E+02   4.151846E+02   3.790477E+02   9.244995E+01   1.199978E+02   3.809777E+02   8.843820E+02   1.553018E+03   1.553018E+03   5.039801E+02   1.481812E+02   1.481812E+02   6.494225E+01   1.707328E+02   1.707328E+02   2.297816E+02   2.297816E+02   2.297816E+02   3.414026E+02   3.414026E+02   3.414026E+02   2.080088E+02   2.080088E+02   2.080088E+02   2.080088E+02   2.080088E+02   2.543189E+02   2.543189E+02   2.543189E+02   2.543189E+02   2.543189E+02   2.602613E+02   2.602613E+02   2.602613E+02   2.602613E+02   2.602613E+02   2.602613E+02   2.602613E+02   2.929436E+02   2.929436E+02   2.929436E+02   2.929436E+02   2.929436E+02   2.929436E+02   2.929436E+02   2.929436E+02   2.929436E+02   2.929436E+02   1.200515E+02   1.200515E+02   1.200515E+02   1.200515E+02   1.200515E+02   1.200515E+02   1.200515E+02   1.200515E+02   1.200515E+02   8.729148E+01   8.729148E+01   8.729148E+01   8.729148E+01   8.729148E+01   8.729148E+01   8.729148E+01   4.432304E+01   4.432304E+01   4.432304E+01   4.432304E+01   4.432304E+01   8.174752E+00   8.174752E+00   8.174752E+00   8.174752E+00   1.413901E+01   1.413901E+01   1.413901E+01   1.969911E+01   1.969911E+01   2.394701E+02   2.394701E+02   1.044920E+03   1.044920E+03   1.896187E+02   1.246441E+02   1.055936E+02   1.055936E+02   7.833310E+01   1.581309E+02   2.433988E+02   1.032912E+02   1.225769E+02   7.365400E+01   4.667538E+01   4.582677E+01   5.479074E+01   1.074749E+02   1.628457E+02   2.391309E+02   8.148306E+01   2.576128E+01   8.808307E+01   4.635881E+01   2.408003E+01   8.308648E+01   3.239125E+01   1.068609E+01   2.149929E+01   1.432959E+01   2.145797E+01   1.140507E+01   6.245258E+01   1.218765E+02   1.571000E+02   1.515846E+02   4.115873E+01   3.027905E+01   7.103834E+01   8.472036E+01   7.026839E+01   3.569255E+02   3.540622E+02   2.390495E+02   1.290364E+02   9.129645E+01   1.322401E+02
   4.422448E+01   8.453078E+01   9.239925E+01   1.097819E+02   1.014898E+02   7.724018E+01   1.229559E+02   8.576540E+01   2.443380E+02   7.729397E+01   1.937983E+02   5.179651E+02   5.298227E+02   4.034960E+02   1.029335E+02   1.294548E+02   1.018528E+02   9.355892E+01   8.978351E+01   6.045282E+01   8.241100E+01   8.484202E+01   2.539069E+01   1.999496E+01   3.470249E+01   8.073934E+01   1.064747E+02   6.182214E+01   7.719820E+01   7.530702E+01   8.773838E+01   3.664837E+01   5.046880E+01   1.943072E+01   6.595726E+01   5.446988E+01   4.273642E+01   3.165785E+01   2.081245E+01   7.059873E+01   1.900076E+02   9.842052E+01   4.949341E+01   4.682539E+01   4.474116E+01   3.206785E+01   4.159054E+01   7.951727E+01   3.713885E+01   1.015413E+02   1.027287E+02   2.571704E+02   2.639967E+02   2.499294E+02   1.130172E+02   3.561508E+02   2.844305E+02   1.107217E+02   7.286639E+01   1.689362E+01   1.711432E+01   1.664820E+01   2.760741E+01   3.683995E+01   4.085524E+01   2.416780E+01   7.574738E+01   1.434920E+02   1.969577E+02   1.503446E+02   1.975970E+02   2.363839E+02   3.807192E+01   4.048534E+01   4.379903E+01   9.709931E+01   1.238834E+02   1.428035E+02   3.549654E+01   3.192280E+01   1.798435E+01   2.264378E+01   1.132337E+02   2.549042E+02   1.434748E+02   1.492354E+02   3.020442E+02   6.874172E+02   6.499003E+02   1.038291E+03   1.038291E+03   5.619578E+02   8.868118E+01   8.868118E+01   9.681013E+01   1.191871E+02   1.191871E+02   9.209000E+01   9.209000E+01   9.209000E+01   1.614505E+02   1.614505E+02   1.614505E+02   2.149117E+02   2.149117E+02   2.149117E+02   2.149117E+02   2.149117E+02   1.408607E+02   1.408607E+02   1.408607E+02   1.408607E+02   1.408607E+02   4.560947E+02   4.560947E+02   4.560947E+02   4.560947E+02   4.560947E+02   4.560947E+02   4.560947E+02   1.387258E+02   1.387258E+02   1.387258E+02   1.387258E+02   1.387258E+02   1.387258E+02   1.387258E+02   1.387258E+02   1.387258E+02   1.387258E+02   9.322868E+01   9.322868E+01   9.322868E+01   9.322868E+01   9.322868E+01   9.322868E+01   9.322868E+01   9.322868E+01   9.322868E+01   1.388588E+02   1.388588E+02   1.388588E+02   1.388588E+02   1.388588E+02   1.388588E+02   1.388588E+02   4.013781E+01   4.013781E+01   4.013781E+01   4.013781E+01   4.013781E+01   1.722707E+01   1.722707E+01   1.722707E+01   1.722707E+01   1.056140E+01   1.056140E+01   1.056140E+01   5.940070E+01   5.940070E+01   3.014875E+02   3.014875E+02   5.483360E+02   5.483360E+02   1.525316E+02   9.077712E+01   7.871296E+01   7.871296E+01   1.006478E+02   1.479700E+02   6.315297E+01   1.605844E+02   6.736057E+01   1.478248E+01   2.818830E+01   4.377928E+01   4.708520E+01   6.468663E+01   1.239223E+02   1.347245E+02   5.735495E+01   4.428694E+01   6.722307E+01   6.019305E+01   2.770422E+01   5.808883E+01   2.995098E+01   3.244602E+01   4.582611E+01   9.899845E+00   1.518316E+01   1.167417E+01   5.328940E+01   2.256318E+02   2.170865E+02   1.767572E+02   7.682165E+01   1.232458E+02   1.150701E+02   1.002487E+02   8.332481E+01   2.189982E+02   2.109745E+02   1.201647E+02   9.577654E+01   7.208485E+01   8.156092E+01
   3.030445E+01   8.776232E+01   1.885352E+02   1.491599E+02   7.846183E+01   5.929337E+01   2.527534E+02   2.154247E+02   2.465685E+02   9.084550E+01   2.097932E+02   4.432844E+02   3.583411E+02   4.536438E+02   5.286264E+01   2.080908E+02   1.654563E+02   1.860698E+02   6.203180E+01   7.423187E+01   2.008143E+02   8.816737E+01   7.839027E+01   2.237371E+01   4.332808E+01   8.152229E+01   1.797639E+02   1.390779E+02   4.593987E+01   9.129904E+01   7.822234E+01   4.262428E+01   2.706586E+01   1.833306E+01   3.799606E+01   5.737938E+01   4.209622E+01   2.876468E+01   1.216598E+01   4.227666E+01   9.422544E+01   1.077757E+02   7.121671E+01   6.694292E+01   4.045538E+01   3.423695E+01   6.701979E+01   6.598466E+01   8.765420E+01   1.235719E+02   1.151889E+02   1.667771E+02   1.388306E+02   1.609482E+02   1.727513E+02   1.549619E+02   2.511883E+02   9.928416E+01   6.715193E+01   1.871124E+01   9.221107E+00   1.547693E+01   1.852569E+01   2.688307E+01   4.627238E+01   7.678988E+01   1.064693E+02   1.129754E+02   1.374431E+02   1.532074E+02   3.415698E+02   2.144579E+02   7.819746E+01   5.947341E+01   1.777597E+01   4.646337E+01   4.838667E+01   6.610051E+01   5.031945E+01   3.191184E+01   1.756740E+01   2.311413E+01   8.716834E+01   2.702360E+02   1.982075E+02   1.300376E+02   1.701710E+02   7.276198E+02   1.118130E+03   8.261614E+02   8.261614E+02   1.192848E+02   2.573913E+01   2.573913E+01   5.062592E+01   1.044572E+02   1.044572E+02   5.329361E+01   5.329361E+01   5.329361E+01   2.141690E+02   2.141690E+02   2.141690E+02   1.803562E+02   1.803562E+02   1.803562E+02   1.803562E+02   1.803562E+02   1.526408E+02   1.526408E+02   1.526408E+02   1.526408E+02   1.526408E+02   1.564548E+02   1.564548E+02   1.564548E+02   1.564548E+02   1.564548E+02   1.564548E+02   1.564548E+02   9.225829E+01   9.225829E+01   9.225829E+01   9.225829E+01   9.225829E+01   9.225829E+01   9.225829E+01   9.225829E+01   9.225829E+01   9.225829E+01   1.545863E+02   1.545863E+02   1.545863E+02   1.545863E+02   1.545863E+02   1.545863E+02   1.545863E+02   1.545863E+02   1.545863E+02   1.547692E+02   1.547692E+02   1.547692E+02   1.547692E+02   1.547692E+02   1.547692E+02   1.547692E+02   9.116819E+01   9.116819E+01   9.116819E+01   9.116819E+01   9.116819E+01   4.659678E+01   4.659678E+01   4.659678E+01   4.659678E+01   1.522218E+01   1.522218E+01   1.522218E+01   5.237027E+01   5.237027E+01   2.351214E+02   2.351214E+02   3.263331E+02   3.263331E+02   6.543299E+01   6.589608E+01   9.304945E+01   9.304945E+01   8.151757E+01   1.746285E+02   2.597796E+01   6.927901E+01   5.570261E+01   1.179525E+01   6.223562E+01   4.638544E+01   7.233326E+01   1.042670E+02   6.706533E+01   7.218043E+01   8.437620E+01   5.275694E+01   4.703465E+01   2.504117E+02   6.876369E+01   7.393790E+01   4.101451E+01   6.052192E+01   1.213614E+02   1.639911E+01   1.318048E+01   7.049836E+00   6.105142E+01   3.300784E+02   3.182213E+02   2.842720E+02   4.869281E+01   8.576394E+01   1.454142E+02   1.655348E+02   1.081857E+02   2.421569E+02   2.100000E+02   8.146001E+01   4.799537E+01   7.181798E+01   9.556075E+01
   3.827377E+01   6.759544E+01   1.385947E+02   1.790456E+02   1.995276E+02   1.004567E+02   1.846276E+02   2.057235E+02   1.532418E+02   5.045174E+01   2.745382E+02   2.062895E+02   3.517337E+02   3.491566E+02   8.477084E+01   2.569230E+02   1.050389E+02   5.198682E+01   6.592996E+01   7.064037E+01   8.846195E+01   1.032687E+02   5.802185E+01   1.784935E+01   4.342753E+01   8.711238E+01   2.494793E+02   9.350854E+01   5.601580E+01   2.582880E+01   8.021674E+01   6.166937E+01   3.958094E+01   1.952443E+01   2.184698E+01   6.235639E+01   4.986137E+01   4.540720E+01   2.380229E+01   4.160047E+01   1.384202E+02   1.247786E+02   7.025754E+01   8.097672E+01   4.451047E+01   2.899700E+01   4.153660E+01   1.439516E+02   1.523439E+02   1.767478E+02   9.111762E+01   9.086015E+01   1.125427E+02   2.069535E+02   9.192625E+01   1.555831E+02   9.193287E+01   4.163673E+01   6.098376E+01   1.989749E+01   1.350053E+01   9.484914E+00   1.806946E+01   2.526930E+01   3.383590E+01   7.316297E+01   5.320416E+01   5.876244E+01   8.241753E+01   1.761698E+02   4.516591E+02   1.925303E+02   5.041263E+01   3.752008E+01   1.884661E+01   2.805618E+01   5.867612E+01   3.588688E+01   4.393266E+01   3.631118E+01   1.710695E+01   2.401166E+01   6.595374E+01   1.234379E+02   5.963586E+01   5.143959E+01   1.872622E+02   2.525255E+03   1.092803E+03   3.984898E+02   3.984898E+02   1.085919E+02   5.914761E+01   5.914761E+01   3.264874E+01   5.552916E+01   5.552916E+01   1.651499E+02   1.651499E+02   1.651499E+02   3.641665E+02   3.641665E+02   3.641665E+02   1.453015E+02   1.453015E+02   1.453015E+02   1.453015E+02   1.453015E+02   9.789079E+01   9.789079E+01   9.789079E+01   9.789079E+01   9.789079E+01   1.887642E+02   1.887642E+02   1.887642E+02   1.887642E+02   1.887642E+02   1.887642E+02   1.887642E+02   1.470715E+02   1.470715E+02   1.470715E+02   1.470715E+02   1.470715E+02   1.470715E+02   1.470715E+02   1.470715E+02   1.470715E+02   1.470715E+02   1.710012E+02   1.710012E+02   1.710012E+02   1.710012E+02   1.710012E+02   1.710012E+02   1.710012E+02   1.710012E+02   1.710012E+02   1.439046E+02   1.439046E+02   1.439046E+02   1.439046E+02   1.439046E+02   1.439046E+02   1.439046E+02   9.258775E+01   9.258775E+01   9.258775E+01   9.258775E+01   9.258775E+01   5.356797E+01   5.356797E+01   5.356797E+01   5.356797E+01   1.188491E+01   1.188491E+01   1.188491E+01   2.249982E+01   2.249982E+01   1.913952E+02   1.913952E+02   2.031020E+02   2.031020E+02   5.946310E+01   1.084929E+02   1.322580E+02   1.322580E+02   3.433927E+01   7.831623E+01   4.447600E+01   5.416628E+01   5.456124E+01   2.106361E+01   2.471556E+01   3.644228E+01   2.862622E+01   1.428302E+02   7.502473E+01   4.450914E+01   2.186147E+02   1.115895E+02   1.619007E+02   1.528276E+02   1.758255E+02   6.637936E+01   5.816171E+01   5.201728E+01   7.162726E+01   2.040584E+01   1.586899E+01   6.031473E+00   5.254827E+01   2.930052E+02   5.164939E+02   8.135444E+02   1.058648E+02   5.856947E+01   9.882880E+01   1.130773E+02   5.958555E+01   9.963900E+01   1.251842E+02   3.308876E+01   2.420855E+01   9.640649E+01   2.190164E+02
   1.996004E+01   2.464569E+01   1.188018E+02   1.384733E+02   1.653680E+02   1.767323E+02   3.659918E+02   1.789726E+02   1.602999E+02   5.016873E+01   9.040868E+01   2.220915E+02   4.851971E+02   4.654837E+02   1.804754E+02   8.866055E+01   1.204587E+02   5.644157E+01   3.417266E+01   1.018405E+02   2.062083E+02   1.386562E+02   8.182948E+01   1.887381E+01   2.472453E+01   5.821769E+01   1.249105E+02   8.709414E+01   2.789918E+01   3.382353E+01   1.508552E+02   4.716436E+01   3.299364E+01   3.388136E+01   3.578499E+01   5.419008E+01   5.357111E+01   3.443712E+01   7.957092E+01   3.352772E+01   7.375485E+01   1.504877E+02   1.353364E+02   9.077563E+01   4.487661E+01   4.316518E+01   5.453863E+01   1.451584E+02   1.363606E+02   9.889661E+01   7.954506E+01   7.827328E+01   9.254849E+01   1.755570E+02   6.029253E+01   1.176203E+02   2.724350E+01   2.527493E+01   3.947523E+01   3.282643E+01   2.472601E+01   1.136229E+01   2.088906E+01   4.059917E+01   3.588818E+01   6.573126E+01   8.046159E+01   8.363574E+01   2.324339E+02   2.820484E+02   2.836175E+02   2.003402E+02   5.294439E+01   4.443853E+01   1.564706E+01   4.311650E+01   5.814852E+01   2.777411E+01   2.851426E+01   2.206989E+01   1.779097E+01   3.179694E+01   1.034102E+02   1.656486E+02   1.565153E+02   4.069548E+01   2.464503E+02   7.201271E+02   3.007149E+03   3.529382E+02   3.529382E+02   8.802971E+01   5.163926E+01   5.163926E+01   7.853045E+01   1.437794E+02   1.437794E+02   1.752003E+02   1.752003E+02   1.752003E+02   2.550104E+02   2.550104E+02   2.550104E+02   1.911271E+02   1.911271E+02   1.911271E+02   1.911271E+02   1.911271E+02   1.192785E+02   1.192785E+02   1.192785E+02   1.192785E+02   1.192785E+02   9.652725E+01   9.652725E+01   9.652725E+01   9.652725E+01   9.652725E+01   9.652725E+01   9.652725E+01   8.176218E+01   8.176218E+01   8.176218E+01   8.176218E+01   8.176218E+01   8.176218E+01   8.176218E+01   8.176218E+01   8.176218E+01   8.176218E+01   1.396901E+02   1.396901E+02   1.396901E+02   1.396901E+02   1.396901E+02   1.396901E+02   1.396901E+02   1.396901E+02   1.396901E+02   1.430721E+02   1.430721E+02   1.430721E+02   1.430721E+02   1.430721E+02   1.430721E+02   1.430721E+02   7.721745E+01   7.721745E+01   7.721745E+01   7.721745E+01   7.721745E+01   3.280482E+01   3.280482E+01   3.280482E+01   3.280482E+01   1.525704E+01   1.525704E+01   1.525704E+01   6.528000E+01   6.528000E+01   8.164372E+01   8.164372E+01   8.186252E+01   8.186252E+01   1.120517E+02   1.695276E+02   1.220366E+02   1.220366E+02   5.179350E+01   2.217501E+01   4.447142E+01   5.287365E+01   4.722138E+01   4.402914E+01   6.980385E+01   3.876019E+01   5.295217E+01   1.299559E+02   1.057554E+02   6.910753E+01   1.695867E+02   1.426423E+02   3.497512E+02   1.859546E+02   1.082283E+02   1.109991E+02   4.992201E+01   8.623394E+01   4.701541E+01   1.406469E+01   1.408043E+01   4.885474E+00   5.122663E+01   3.118262E+02   2.308208E+02   5.942557E+02   2.210932E+02   5.498843E+01   4.122112E+01   9.037266E+01   1.148499E+02   7.017110E+01   6.101827E+01   2.276846E+01   2.695092E+01   8.782375E+01   1.572160E+02
   9.276048E+01   3.571504E+01   1.007048E+02   1.657493E+02   2.262094E+02   2.072182E+02   3.326785E+02   2.116772E+02   7.993562E+01   4.126059E+01   4.428672E+01   2.146765E+02   2.757801E+02   3.376384E+02   1.193702E+02   1.254951E+02   1.195094E+02   4.128658E+01   3.500282E+01   1.082460E+02   1.480327E+02   4.885907E+01   1.329469E+02   3.698982E+01   3.776225E+01   3.078882E+01   8.505920E+01   4.132090E+01   2.126125E+01   2.019261E+01   6.486510E+01   8.846459E+01   2.106190E+01   3.515711E+01   1.596359E+01   5.021643E+01   4.968310E+01   4.889675E+01   3.171098E+01   3.070209E+01   5.879363E+01   9.752216E+01   2.443922E+02   9.083262E+01   6.623837E+01   3.602761E+01   5.320864E+01   1.715669E+02   1.415141E+02   1.354611E+02   5.036986E+01   8.942921E+01   1.113355E+02   1.344062E+02   5.388772E+01   3.408634E+01   2.382761E+01   1.405538E+01   4.604633E+01   3.428745E+01   3.741073E+01   2.260239E+01   3.876398E+01   6.737898E+01   5.953399E+01   8.990719E+01   8.351852E+01   7.507145E+01   2.370959E+02   2.861713E+02   3.395580E+02   3.380796E+02   1.002573E+02   2.677807E+01   1.681032E+01   4.233774E+01   3.788737E+01   1.982392E+01   3.037728E+01   2.260076E+01   3.634638E+01   4.847688E+01   1.054174E+02   1.281120E+02   8.521452E+01   3.674429E+01   2.245903E+02   3.766320E+02   7.199728E+02   2.093435E+02   2.093435E+02   6.863472E+01   1.584600E+02   1.584600E+02   8.619520E+01   1.736216E+02   1.736216E+02   1.103321E+02   1.103321E+02   1.103321E+02   1.608323E+02   1.608323E+02   1.608323E+02   2.589581E+02   2.589581E+02   2.589581E+02   2.589581E+02   2.589581E+02   1.062402E+02   1.062402E+02   1.062402E+02   1.062402E+02   1.062402E+02   9.212433E+01   9.212433E+01   9.212433E+01   9.212433E+01   9.212433E+01   9.212433E+01   9.212433E+01   7.947073E+01   7.947073E+01   7.947073E+01   7.947073E+01   7.947073E+01   7.947073E+01   7.947073E+01   7.947073E+01   7.947073E+01   7.947073E+01   1.310254E+02   1.310254E+02   1.310254E+02   1.310254E+02   1.310254E+02   1.310254E+02   1.310254E+02   1.310254E+02   1.310254E+02   1.774201E+02   1.774201E+02   1.774201E+02   1.774201E+02   1.774201E+02   1.774201E+02   1.774201E+02   1.081017E+02   1.081017E+02   1.081017E+02   1.081017E+02   1.081017E+02   3.833695E+01   3.833695E+01   3.833695E+01   3.833695E+01   2.721901E+01   2.721901E+01   2.721901E+01   7.904855E+01   7.904855E+01   7.981400E+01   7.981400E+01   1.107344E+02   1.107344E+02   1.299128E+02   1.384106E+02   7.212688E+01   7.212688E+01   4.869780E+01   3.758210E+01   5.122977E+01   4.407175E+01   3.866721E+01   6.692088E+01   1.584051E+02   5.374910E+01   2.081650E+01   7.539859E+01   1.540914E+02   1.884556E+02   1.855852E+02   4.466838E+02   5.038085E+02   2.039108E+02   6.694252E+01   9.716106E+01   8.038113E+01   7.749770E+01   4.171092E+01   2.596923E+01   8.970192E+00   9.335571E+00   1.149275E+01   1.584242E+02   9.790267E+01   2.590304E+02   1.352294E+02   4.761407E+01   4.496069E+01   7.843268E+01   2.283991E+02   7.516025E+01   7.098634E+01   3.701553E+01   4.811160E+01   1.001690E+02   2.379658E+02
   1.496102E+02   5.760623E+01   5.662589E+01   7.360226E+01   9.393620E+01   1.240655E+02   5.064175E+02   2.073404E+02   5.096542E+01   5.520342E+01   4.224871E+01   1.267313E+02   2.550296E+02   1.727351E+02   1.000902E+02   9.887099E+01   5.003298E+01   4.771150E+01   4.644554E+01   5.453627E+01   8.062195E+01   7.983488E+01   6.591718E+01   7.495013E+01   3.231307E+01   1.495880E+01   1.126722E+01   3.373603E+01   1.284472E+01   9.671162E+00   8.045801E+01   1.091130E+02   8.995677E+01   4.223518E+01   4.293604E+01   4.191192E+01   3.250342E+01   6.500848E+01   4.460820E+01   3.938636E+01   7.649903E+01   1.571382E+02   2.543102E+02   2.076352E+02   6.585086E+01   3.384681E+01   6.169783E+01   7.690466E+01   1.546900E+02   8.825300E+01   4.125267E+01   4.241872E+01   1.276020E+02   1.245103E+02   3.337866E+01   6.317047E+01   2.618055E+01   9.140990E+00   1.489550E+01   1.832853E+01   2.211187E+01   2.346155E+01   1.167713E+02   8.757984E+01   5.930431E+01   7.836084E+01   1.314554E+02   6.100034E+01   1.413037E+02   2.696089E+02   1.163814E+02   3.383945E+02   1.098133E+02   2.580508E+01   7.234243E+01   3.969367E+01   2.007910E+01   8.372375E+00   3.983261E+01   2.422380E+01   2.243867E+01   6.112015E+01   7.338238E+01   7.450961E+01   3.618227E+01   4.007748E+01   9.428638E+01   3.029034E+02   1.792128E+02   1.343850E+02   1.343850E+02   5.360218E+01   1.169588E+02   1.169588E+02   7.632240E+01   4.450529E+01   4.450529E+01   1.288255E+02   1.288255E+02   1.288255E+02   3.810786E+02   3.810786E+02   3.810786E+02   3.867998E+02   3.867998E+02   3.867998E+02   3.867998E+02   3.867998E+02   1.851354E+02   1.851354E+02   1.851354E+02   1.851354E+02   1.851354E+02   5.370457E+01   5.370457E+01   5.370457E+01   5.370457E+01   5.370457E+01   5.370457E+01   5.370457E+01   1.418671E+02   1.418671E+02   1.418671E+02   1.418671E+02   1.418671E+02   1.418671E+02   1.418671E+02   1.418671E+02   1.418671E+02   1.418671E+02   1.523946E+02   1.523946E+02   1.523946E+02   1.523946E+02   1.523946E+02   1.523946E+02   1.523946E+02   1.523946E+02   1.523946E+02   1.203850E+02   1.203850E+02   1.203850E+02   1.203850E+02   1.203850E+02   1.203850E+02   1.203850E+02   6.965573E+01   6.965573E+01   6.965573E+01   6.965573E+01   6.965573E+01   5.248925E+01   5.248925E+01   5.248925E+01   5.248925E+01   2.706368E+01   2.706368E+01   2.706368E+01   6.533110E+01   6.533110E+01   1.018158E+02   1.018158E+02   1.827982E+02   1.827982E+02   1.479445E+02   1.703425E+02   7.960764E+01   7.960764E+01   4.102777E+01   2.486812E+01   3.011766E+01   3.892610E+01   3.914364E+01   6.618376E+01   1.328729E+02   1.030732E+02   3.036808E+01   1.210030E+02   2.653885E+02   2.491614E+02   1.903926E+02   1.052682E+03   6.957256E+02   2.120157E+02   1.571809E+02   1.587850E+02   7.345776E+01   2.271992E+01   9.994072E+00   2.547883E+01   1.360808E+01   5.502253E+00   9.846628E+00   2.219252E+02   1.107997E+02   8.624896E+01   4.238924E+01   5.908731E+01   5.465391E+01   9.539843E+01   2.581152E+02   2.571741E+01   7.390884E+01   3.394547E+01   5.587218E+01   1.943788E+02   2.412936E+02
   1.203249E+02   7.118086E+01   6.136148E+01   1.054883E+02   3.543941E+01   6.347003E+01   7.199505E+02   1.984147E+02   5.891551E+01   4.037361E+01   4.691847E+01   1.345382E+02   2.444311E+02   9.790961E+01   1.699191E+02   7.680119E+01   4.017576E+01   2.509357E+01   1.001981E+02   7.507710E+01   1.162847E+02   3.998555E+01   4.715464E+01   1.048669E+02   2.378318E+01   1.752100E+01   8.229929E+00   1.776678E+01   1.414205E+01   1.558479E+01   3.345333E+01   5.423167E+01   5.877457E+01   2.852280E+01   2.974144E+01   4.235169E+01   8.030673E+01   1.004975E+02   6.691912E+01   3.679357E+01   5.378265E+01   8.784717E+01   2.217856E+02   1.672152E+02   5.934689E+01   4.411353E+01   2.679861E+01   6.620542E+01   7.814304E+01   5.264095E+01   5.986552E+01   5.538266E+01   1.218856E+02   1.628235E+02   6.816451E+01   7.132642E+01   2.288533E+01   1.144990E+01   2.853270E+01   2.123660E+01   6.336618E+01   3.739854E+01   1.081578E+02   7.964213E+01   4.655948E+01   5.291085E+01   4.532774E+01   7.002095E+01   1.321118E+02   2.259308E+02   1.205318E+02   1.173350E+02   9.769022E+01   3.772380E+01   6.913241E+01   4.832886E+01   5.394311E+01   1.313844E+01   4.058350E+01   4.809313E+01   8.023821E+00   2.934106E+01   1.732489E+02   8.635697E+01   5.074485E+01   3.914165E+01   5.904065E+01   1.945344E+02   1.199754E+02   1.027383E+02   1.027383E+02   1.002473E+02   1.009669E+02   1.009669E+02   1.236744E+02   2.083706E+02   2.083706E+02   1.825028E+02   1.825028E+02   1.825028E+02   5.157273E+02   5.157273E+02   5.157273E+02   3.892275E+02   3.892275E+02   3.892275E+02   3.892275E+02   3.892275E+02   1.513530E+02   1.513530E+02   1.513530E+02   1.513530E+02   1.513530E+02   1.261133E+02   1.261133E+02   1.261133E+02   1.261133E+02   1.261133E+02   1.261133E+02   1.261133E+02   1.458988E+02   1.458988E+02   1.458988E+02   1.458988E+02   1.458988E+02   1.458988E+02   1.458988E+02   1.458988E+02   1.458988E+02   1.458988E+02   2.105770E+02   2.105770E+02   2.105770E+02   2.105770E+02   2.105770E+02   2.105770E+02   2.105770E+02   2.105770E+02   2.105770E+02   1.055145E+02   1.055145E+02   1.055145E+02   1.055145E+02   1.055145E+02   1.055145E+02   1.055145E+02   1.492906E+02   1.492906E+02   1.492906E+02   1.492906E+02   1.492906E+02   8.664869E+01   8.664869E+01   8.664869E+01   8.664869E+01   3.551559E+01   3.551559E+01   3.551559E+01   5.852258E+01   5.852258E+01   6.353322E+01   6.353322E+01   1.834507E+02   1.834507E+02   2.293625E+02   2.380820E+02   7.252699E+01   7.252699E+01   2.398872E+01   2.971783E+01   1.690198E+01   2.681781E+01   5.168661E+01   9.859284E+01   1.682979E+02   5.614872E+01   4.104862E+01   8.250747E+01   2.948561E+02   3.857099E+02   4.046950E+02   7.474239E+02   5.029870E+02   5.534719E+02   1.597308E+02   1.886544E+02   7.799884E+01   4.090422E+01   2.501345E+01   2.299161E+01   1.782911E+01   8.912736E+00   1.131135E+01   8.586768E+01   6.718922E+01   3.524232E+01   2.505582E+01   4.610402E+01   3.842612E+01   1.206740E+02   1.585816E+02   6.010065E+01   4.962074E+01   7.492750E+01   2.638792E+02   1.126850E+02   1.676742E+02
   1.489344E+02   9.594943E+01   8.535471E+01   2.435428E+02   2.781926E+01   3.445359E+01   2.490882E+02   1.293550E+02   7.171342E+01   4.595827E+01   3.963889E+01   1.182065E+02   1.847843E+02   1.552606E+02   1.937618E+02   7.788148E+01   7.440780E+01   1.518312E+01   7.281544E+01   9.411092E+01   1.202857E+02   1.083103E+02   9.897945E+01   7.386061E+01   2.296267E+01   1.781604E+01   6.054050E+00   1.561843E+01   2.113995E+01   1.719077E+01   2.258150E+01   4.644033E+01   1.043609E+02   2.139182E+01   1.995041E+01   6.920258E+01   8.937698E+01   1.098584E+02   6.289806E+01   4.580976E+01   7.988622E+01   1.438062E+02   2.644178E+02   8.180476E+01   7.804053E+01   4.936065E+01   3.762410E+01   4.293971E+01   6.590931E+01   9.942564E+01   1.171657E+02   5.830340E+01   2.067779E+02   1.202727E+02   4.966111E+01   9.239160E+01   3.036981E+01   1.310517E+01   2.483397E+01   4.009838E+01   6.832575E+01   3.793187E+01   8.940748E+01   6.331070E+01   3.686153E+01   2.613366E+01   3.120063E+01   3.973745E+01   1.258661E+02   2.133424E+02   1.942738E+02   1.235399E+02   8.576791E+01   1.195691E+02   8.326331E+01   7.142951E+01   4.088075E+01   2.235684E+01   5.243403E+01   5.506762E+01   1.291461E+01   3.779488E+01   1.358451E+02   1.815486E+02   1.588758E+02   7.142818E+01   1.112532E+02   1.681315E+02   7.528640E+01   8.301339E+01   8.301339E+01   1.150238E+02   1.205826E+02   1.205826E+02   8.967475E+01   1.556274E+02   1.556274E+02   1.253453E+02   1.253453E+02   1.253453E+02   3.394176E+02   3.394176E+02   3.394176E+02   4.043882E+02   4.043882E+02   4.043882E+02   4.043882E+02   4.043882E+02   2.650287E+02   2.650287E+02   2.650287E+02   2.650287E+02   2.650287E+02   8.026443E+01   8.026443E+01   8.026443E+01   8.026443E+01   8.026443E+01   8.026443E+01   8.026443E+01   1.490016E+02   1.490016E+02   1.490016E+02   1.490016E+02   1.490016E+02   1.490016E+02   1.490016E+02   1.490016E+02   1.490016E+02   1.490016E+02   8.833672E+01   8.833672E+01   8.833672E+01   8.833672E+01   8.833672E+01   8.833672E+01   8.833672E+01   8.833672E+01   8.833672E+01   1.568153E+02   1.568153E+02   1.568153E+02   1.568153E+02   1.568153E+02   1.568153E+02   1.568153E+02   1.428695E+02   1.428695E+02   1.428695E+02   1.428695E+02   1.428695E+02   7.507858E+01   7.507858E+01   7.507858E+01   7.507858E+01   5.409367E+01   5.409367E+01   5.409367E+01   4.392028E+01   4.392028E+01   7.687839E+01   7.687839E+01   1.666179E+02   1.666179E+02   2.094325E+02   9.809979E+01   4.764208E+01   4.764208E+01   3.133545E+01   1.487373E+01   3.938409E+01   4.206584E+01   1.010633E+02   1.450649E+02   9.654808E+01   1.209100E+02   4.157607E+01   1.075804E+02   2.332497E+02   3.920512E+02   6.056061E+02   5.228880E+02   4.263759E+02   5.239228E+02   2.429253E+02   1.971161E+02   1.023082E+02   3.358012E+01   2.191404E+01   3.599289E+01   4.957929E+01   2.350163E+01   1.569676E+01   1.106526E+01   3.654076E+01   3.215622E+01   9.044555E+01   5.169188E+01   5.046150E+01   6.198736E+01   8.611917E+01   8.853346E+01   3.398105E+01   9.427862E+01   1.408215E+02   1.796031E+02   8.953808E+01