# LPF package for  MODFLOW-2005, generated by Flopy.
        53    -1E+30         0  
         1
         0
   0.000000E+00
         0
         0
INTERNAL               1 (207E15.6) -1 #hk layer 1                    
   7.385541E-02   3.274309E-02   1.224515E-01   3.802620E-02   4.457026E-02   6.610346E-02   1.514596E-01   1.263024E-01   1.073506E-01   9.183033E-02   7.694071E-02   8.431707E-02   7.954555E-02   8.702578E-02   9.055105E-02   4.938035E-02   2.104563E-01   4.601481E-01   2.012887E-01   5.874788E-01   4.390383E-01   1.818762E-01   6.747096E-01   6.495961E-01   4.036266E-01   3.473195E-01   3.074934E-01   3.310834E-01   3.910697E-01   1.225161E+00   3.616596E-01   6.784628E-02   1.818772E-02   3.129891E-02   6.506652E-02   5.103990E-02   4.604519E-02   5.044965E-02   7.839825E-02   6.896207E-02   6.025837E-02   1.868225E-01   1.192571E-01   1.842835E-01   2.390126E-01   1.540136E-01   7.017631E-02   4.281713E-02   1.921947E-01   1.774171E-01   6.762395E-02   3.725903E-02   6.083745E-02   2.484906E-01   9.230933E-01   6.495212E-01   4.548778E-01   4.209488E-01   1.555730E-01   2.107074E-01   8.227954E-02   1.067857E-01   9.845654E-02   1.207217E-01   2.054309E-01   2.250762E-01   8.755777E-02   1.104073E-01   4.481290E-02   8.886172E-02   8.695227E-02   7.597366E-02   5.058973E-02   9.223340E-02   8.313471E-02   1.729604E-01   2.333034E-01   1.720345E-01   1.726713E-01   5.274251E-02   3.544720E-02   1.733346E-02   4.219703E-02   1.217399E-02   1.060395E-02   1.439608E-02   7.376572E-02   5.037662E-01   7.526270E-01   3.130711E-01   3.130711E-01   1.131481E-01   4.773372E-02   4.773372E-02   3.199813E-02   9.547909E-02   9.547909E-02   1.467144E-01   1.467144E-01   1.467144E-01   2.947363E-01   2.947363E-01   2.947363E-01   3.913707E-01   3.913707E-01   3.913707E-01   3.913707E-01   3.913707E-01   4.721026E-01   4.721026E-01   4.721026E-01   4.721026E-01   4.721026E-01   1.531608E-01   1.531608E-01   1.531608E-01   1.531608E-01   1.531608E-01   1.531608E-01   1.531608E-01   9.457765E-02   9.457765E-02   9.457765E-02   9.457765E-02   9.457765E-02   9.457765E-02   9.457765E-02   9.457765E-02   9.457765E-02   9.457765E-02   1.085543E-01   1.085543E-01   1.085543E-01   1.085543E-01   1.085543E-01   1.085543E-01   1.085543E-01   1.085543E-01   1.085543E-01   1.179097E-01   1.179097E-01   1.179097E-01   1.179097E-01   1.179097E-01   1.179097E-01   1.179097E-01   1.103490E-01   1.103490E-01   1.103490E-01   1.103490E-01   1.103490E-01   1.222228E-01   1.222228E-01   1.222228E-01   1.222228E-01   1.329894E-01   1.329894E-01   1.329894E-01   1.386598E-01   1.386598E-01   2.130567E-01   2.130567E-01   1.852776E-01   1.852776E-01   9.960803E-02   1.502659E-01   1.361864E-01   1.361864E-01   1.923411E-01   6.532618E-02   3.975233E-02   4.198195E-02   1.882850E-02   3.623712E-02   5.421203E-02   1.045160E-01   2.491017E-01   1.408602E-01   1.588103E-01   7.766189E-02   1.357374E-02   1.990126E-02   4.046864E-02   2.429809E-02   8.119933E-02   8.005953E-02   1.691908E-01   8.242693E-02   8.153247E-02   1.784118E-01   2.065371E-01   1.327570E-01   1.378957E-01   7.548603E-02   3.206443E-02   1.730693E-02   3.247342E-02   8.489600E-02   1.189787E-01   2.543883E-01   2.422563E-01   2.551213E-01   1.313667E-01   1.325472E-01   1.601912E-01   8.123925E-02   9.416571E-02
   1.114850E-01   8.880398E-02   1.338306E-01   7.028352E-02   3.528540E-02   5.357669E-02   9.534609E-02   7.362781E-02   4.975113E-02   4.591371E-02   5.278493E-02   8.335576E-02   2.862013E-02   9.964447E-02   1.372260E-01   1.060929E-01   1.932762E-01   9.627402E-01   3.150418E-01   8.659241E-01   8.697428E-01   1.149761E-01   4.632619E-01   3.220544E-01   3.329439E-01   2.285966E-01   3.396638E-01   2.802991E-01   1.658025E-01   3.007070E-01   1.713691E-01   5.006611E-02   3.807116E-02   1.472742E-02   2.705430E-02   2.542110E-02   3.453074E-02   1.728613E-02   1.399624E-02   4.741349E-02   9.119038E-02   3.196998E-01   8.069045E-02   1.633533E-01   3.262399E-01   2.899892E-01   1.294403E-01   3.664186E-02   1.272639E-01   1.131929E-01   3.853630E-02   6.936315E-02   1.177267E-01   1.869943E-01   6.105289E-01   1.081187E+00   2.193382E-01   2.454832E-01   1.571392E-01   1.290171E-01   6.076785E-02   5.611792E-02   1.045422E-01   3.601584E-01   5.288992E-01   2.746917E-01   2.651401E-01   1.126202E-01   9.351602E-02   7.452052E-02   1.280488E-01   1.350230E-01   8.704149E-02   6.138463E-02   1.264653E-01   1.632927E-01   2.768408E-01   1.570450E-01   1.498093E-01   5.570330E-02   3.244701E-02   2.016723E-02   3.832385E-02   3.606402E-02   1.326039E-02   6.171568E-02   1.389719E-01   1.741157E-01   2.049700E-01   2.973752E-01   2.973752E-01   1.186531E-01   4.857186E-02   4.857186E-02   5.950722E-02   6.821553E-02   6.821553E-02   1.010496E-01   1.010496E-01   1.010496E-01   1.226442E-01   1.226442E-01   1.226442E-01   6.580274E-01   6.580274E-01   6.580274E-01   6.580274E-01   6.580274E-01   5.860468E-01   5.860468E-01   5.860468E-01   5.860468E-01   5.860468E-01   1.955917E-01   1.955917E-01   1.955917E-01   1.955917E-01   1.955917E-01   1.955917E-01   1.955917E-01   2.425551E-01   2.425551E-01   2.425551E-01   2.425551E-01   2.425551E-01   2.425551E-01   2.425551E-01   2.425551E-01   2.425551E-01   2.425551E-01   1.467392E-01   1.467392E-01   1.467392E-01   1.467392E-01   1.467392E-01   1.467392E-01   1.467392E-01   1.467392E-01   1.467392E-01   1.147510E-01   1.147510E-01   1.147510E-01   1.147510E-01   1.147510E-01   1.147510E-01   1.147510E-01   8.608675E-02   8.608675E-02   8.608675E-02   8.608675E-02   8.608675E-02   7.059774E-02   7.059774E-02   7.059774E-02   7.059774E-02   4.963449E-02   4.963449E-02   4.963449E-02   6.916792E-02   6.916792E-02   1.514476E-01   1.514476E-01   2.896056E-01   2.896056E-01   1.505427E-01   2.842429E-01   2.713141E-01   2.713141E-01   1.557798E-01   9.977964E-02   5.638531E-02   3.946891E-02   2.408479E-02   2.481112E-02   5.486175E-02   1.117045E-01   1.852290E-01   1.239558E-01   1.421539E-01   5.836992E-02   1.114414E-02   4.784857E-02   8.718581E-02   6.445763E-02   1.301775E-01   6.559570E-02   9.752586E-02   3.801040E-02   5.676517E-02   1.545065E-01   2.199867E-01   2.085712E-01   6.345799E-02   9.216606E-02   2.850874E-02   2.489406E-02   2.575028E-02   1.794293E-01   1.847277E-01   1.653207E-01   4.945333E-01   1.783968E-01   1.436028E-01   1.256998E-01   1.585037E-01   8.778683E-02   7.293747E-02
   1.293134E-01   6.782809E-02   9.084821E-02   6.408109E-02   2.233577E-02   3.296734E-02   5.349703E-02   7.585857E-02   5.288091E-02   3.277453E-02   1.597955E-02   4.187601E-02   3.504002E-02   7.108787E-02   2.227451E-01   2.113507E-01   1.613745E-01   3.348963E-01   3.210135E-01   7.613839E-01   5.859299E-01   1.326335E-01   3.705936E-01   2.084632E-01   2.866917E-01   1.525342E-01   1.917938E-01   1.872077E-01   2.863731E-01   3.079414E-01   1.754527E-01   3.691494E-02   3.272675E-02   9.410880E-03   1.815427E-02   1.857759E-02   1.526559E-02   6.097318E-03   8.403084E-03   1.398091E-01   1.137674E-01   1.872424E-01   1.015654E-01   1.361714E-01   3.003345E-01   1.281592E-01   1.476375E-01   7.290977E-02   9.017538E-02   3.532749E-02   3.156003E-02   3.118731E-02   7.428838E-02   2.011596E-01   3.431147E-01   3.784055E-01   2.316654E-01   9.908592E-02   1.532975E-01   1.659025E-01   8.297371E-02   1.070068E-01   1.755357E-01   2.966375E-01   3.290948E-01   4.750904E-01   2.870597E-01   1.720482E-01   1.408473E-01   1.213669E-01   1.942032E-01   1.187865E-01   4.880084E-02   4.862399E-02   5.234567E-02   1.582764E-01   1.909550E-01   1.246316E-01   6.014097E-02   1.002833E-01   4.830205E-02   1.626377E-01   8.094700E-02   3.127888E-02   1.564494E-02   3.359267E-02   6.153528E-02   1.073063E-01   1.031857E-01   1.409391E-01   1.409391E-01   2.122806E-01   3.197249E-02   3.197249E-02   5.180080E-02   5.720963E-02   5.720963E-02   1.301315E-01   1.301315E-01   1.301315E-01   7.751482E-02   7.751482E-02   7.751482E-02   5.085407E-01   5.085407E-01   5.085407E-01   5.085407E-01   5.085407E-01   2.069691E-01   2.069691E-01   2.069691E-01   2.069691E-01   2.069691E-01   3.196016E-01   3.196016E-01   3.196016E-01   3.196016E-01   3.196016E-01   3.196016E-01   3.196016E-01   3.392102E-01   3.392102E-01   3.392102E-01   3.392102E-01   3.392102E-01   3.392102E-01   3.392102E-01   3.392102E-01   3.392102E-01   3.392102E-01   4.250455E-01   4.250455E-01   4.250455E-01   4.250455E-01   4.250455E-01   4.250455E-01   4.250455E-01   4.250455E-01   4.250455E-01   2.162127E-01   2.162127E-01   2.162127E-01   2.162127E-01   2.162127E-01   2.162127E-01   2.162127E-01   1.105546E-01   1.105546E-01   1.105546E-01   1.105546E-01   1.105546E-01   1.298419E-01   1.298419E-01   1.298419E-01   1.298419E-01   4.764154E-02   4.764154E-02   4.764154E-02   3.024037E-02   3.024037E-02   1.137599E-01   1.137599E-01   1.032719E-01   1.032719E-01   2.203914E-01   2.119557E-01   2.705814E-01   2.705814E-01   1.015293E-01   1.087481E-01   4.552499E-02   6.296353E-02   5.125058E-02   3.119257E-02   4.102517E-02   1.092090E-01   1.262765E-01   7.324675E-02   1.823070E-01   4.044163E-02   1.571270E-02   5.801767E-02   1.369940E-01   1.841711E-01   7.571241E-02   1.032325E-01   1.064747E-01   8.338916E-02   7.852621E-02   2.141097E-01   2.231500E-01   3.197229E-01   6.516942E-02   1.053107E-01   9.613305E-02   2.464662E-02   7.026140E-02   2.788376E-01   2.514584E-01   1.742338E-01   1.156290E-01   1.427669E-01   2.314829E-01   2.329387E-01   1.502071E-01   7.383389E-02   1.223299E-01
   8.332027E-02   4.401399E-02   1.328321E-01   7.555691E-02   1.920960E-02   2.204649E-02   7.477320E-02   7.780337E-02   1.158873E-01   4.858345E-02   1.200695E-02   1.877724E-02   2.139300E-02   5.316572E-02   9.605116E-02   4.086438E-01   1.547972E-01   2.418908E-01   4.889168E-01   5.683949E-01   2.459575E-01   1.593622E-01   2.291735E-01   1.017296E-01   2.360124E-01   2.930993E-01   1.172786E-01   1.422776E-01   2.139574E-01   5.491152E-02   2.384013E-02   2.495482E-02   4.594394E-02   1.651552E-02   1.995364E-02   1.653621E-02   7.206066E-03   1.179817E-02   2.648888E-02   1.273500E-01   1.050563E-01   1.122318E-01   1.178050E-01   1.350327E-01   2.829305E-01   1.163387E-01   7.048354E-02   4.663575E-02   3.754389E-02   4.694923E-02   5.141733E-02   3.422160E-02   3.759276E-02   7.435802E-02   4.021309E-01   1.834350E-01   1.764690E-01   1.565033E-01   1.659037E-01   1.160636E-01   1.503735E-01   8.376063E-02   1.892586E-01   1.000734E-01   1.898019E-01   4.707405E-01   6.713183E-01   1.634478E-01   1.615685E-01   2.943501E-01   2.586173E-01   1.319155E-01   1.079138E-01   7.320638E-02   1.112866E-01   7.849192E-02   7.666720E-02   1.608404E-01   7.848387E-02   2.002752E-01   9.372907E-02   3.965468E-01   9.781127E-02   3.318448E-02   1.860001E-02   1.979723E-02   9.272188E-02   5.139444E-02   1.037825E-01   9.121040E-02   9.121040E-02   1.156436E-01   5.865040E-02   5.865040E-02   4.773204E-02   6.027957E-02   6.027957E-02   1.672243E-01   1.672243E-01   1.672243E-01   1.045286E-01   1.045286E-01   1.045286E-01   2.367442E-01   2.367442E-01   2.367442E-01   2.367442E-01   2.367442E-01   5.310519E-01   5.310519E-01   5.310519E-01   5.310519E-01   5.310519E-01   5.872720E-01   5.872720E-01   5.872720E-01   5.872720E-01   5.872720E-01   5.872720E-01   5.872720E-01   5.915152E-01   5.915152E-01   5.915152E-01   5.915152E-01   5.915152E-01   5.915152E-01   5.915152E-01   5.915152E-01   5.915152E-01   5.915152E-01   4.856573E-01   4.856573E-01   4.856573E-01   4.856573E-01   4.856573E-01   4.856573E-01   4.856573E-01   4.856573E-01   4.856573E-01   2.832085E-01   2.832085E-01   2.832085E-01   2.832085E-01   2.832085E-01   2.832085E-01   2.832085E-01   8.755995E-02   8.755995E-02   8.755995E-02   8.755995E-02   8.755995E-02   5.933053E-02   5.933053E-02   5.933053E-02   5.933053E-02   5.759052E-02   5.759052E-02   5.759052E-02   1.783946E-02   1.783946E-02   1.041180E-01   1.041180E-01   1.810043E-01   1.810043E-01   2.486613E-01   4.515316E-01   1.148919E-01   1.148919E-01   1.567439E-01   1.846077E-01   6.908429E-02   5.834835E-02   3.843895E-02   4.749789E-02   7.552205E-02   6.084408E-02   4.381089E-02   7.477135E-02   1.505730E-01   3.239122E-02   2.082278E-02   3.263890E-02   6.016945E-02   1.149949E-01   5.399665E-02   1.007617E-01   9.075142E-02   1.202160E-01   4.133718E-02   1.142368E-01   1.248396E-01   1.192340E-01   1.258276E-01   5.790140E-02   7.714495E-02   3.388038E-02   1.551530E-01   7.428329E-02   1.677942E-01   6.127144E-02   1.217027E-01   1.583793E-01   2.764718E-01   2.921961E-01   1.727266E-01   8.295143E-02   1.450301E-01
   1.145355E-01   8.815018E-02   1.006801E-01   7.956362E-02   1.228633E-02   2.963564E-02   5.293938E-02   8.878205E-02   6.354189E-02   2.440190E-02   6.320953E-03   2.984906E-03   7.249746E-03   3.929409E-02   1.156886E-01   2.860769E-01   3.569972E-01   5.542889E-01   3.504384E-01   5.227531E-01   3.227360E-01   1.379167E-01   2.219433E-01   8.103734E-02   2.051675E-01   3.417822E-01   2.653944E-01   2.163834E-01   1.821532E-01   3.981699E-02   3.275974E-02   2.768589E-02   5.229066E-02   3.052225E-02   1.584867E-02   1.853208E-02   7.301777E-03   7.862739E-03   4.857254E-02   7.548606E-02   6.628937E-02   1.512499E-01   2.762150E-01   4.108799E-01   2.462672E-01   5.454697E-02   3.099699E-02   8.876497E-02   5.684695E-02   4.400904E-02   6.505122E-02   3.300701E-02   2.426669E-02   4.713412E-02   4.763860E-01   1.457797E-01   6.472237E-02   1.133999E-01   1.809454E-01   7.839821E-02   1.452472E-01   1.085817E-01   8.980287E-02   7.462773E-02   2.273223E-01   9.002203E-01   1.550836E-01   1.201947E-01   2.766226E-01   2.724294E-01   1.890503E-01   1.445156E-01   1.000331E-01   4.218601E-02   1.345251E-01   8.933573E-02   1.165220E-01   1.514108E-01   6.428459E-02   3.044518E-01   2.297208E-01   3.260154E-01   1.136026E-01   3.668106E-02   2.197029E-02   4.298934E-02   8.873396E-02   5.945109E-02   1.762121E-01   3.091412E-01   3.091412E-01   2.109428E-01   6.404276E-02   6.404276E-02   4.780429E-02   3.918351E-02   3.918351E-02   6.052583E-02   6.052583E-02   6.052583E-02   1.990737E-01   1.990737E-01   1.990737E-01   1.301439E-01   1.301439E-01   1.301439E-01   1.301439E-01   1.301439E-01   2.442730E-01   2.442730E-01   2.442730E-01   2.442730E-01   2.442730E-01   5.756722E-01   5.756722E-01   5.756722E-01   5.756722E-01   5.756722E-01   5.756722E-01   5.756722E-01   5.373683E-01   5.373683E-01   5.373683E-01   5.373683E-01   5.373683E-01   5.373683E-01   5.373683E-01   5.373683E-01   5.373683E-01   5.373683E-01   4.938210E-01   4.938210E-01   4.938210E-01   4.938210E-01   4.938210E-01   4.938210E-01   4.938210E-01   4.938210E-01   4.938210E-01   4.560892E-01   4.560892E-01   4.560892E-01   4.560892E-01   4.560892E-01   4.560892E-01   4.560892E-01   1.410839E-01   1.410839E-01   1.410839E-01   1.410839E-01   1.410839E-01   7.334809E-02   7.334809E-02   7.334809E-02   7.334809E-02   7.461452E-02   7.461452E-02   7.461452E-02   4.178597E-02   4.178597E-02   1.058511E-01   1.058511E-01   1.355377E-01   1.355377E-01   1.241163E-01   2.703099E-01   1.291345E-01   1.291345E-01   2.087683E-01   3.698264E-01   5.573053E-02   5.616466E-02   4.398409E-02   9.907534E-02   1.629053E-01   3.568184E-02   3.044057E-02   3.471715E-02   7.795774E-02   1.450585E-02   2.448331E-02   2.902021E-02   8.156502E-02   9.695947E-02   7.078347E-02   7.792571E-02   3.051205E-01   2.126802E-01   1.081550E-01   1.578353E-01   7.917831E-02   1.524822E-01   5.125207E-02   1.549773E-01   1.499475E-01   2.363459E-02   1.458324E-01   1.234546E-01   2.039566E-01   5.033781E-02   2.768216E-01   1.648209E-01   8.453842E-02   6.362104E-02   3.675290E-01   1.162670E-01   1.433238E-01
   6.025175E-02   7.206567E-02   3.830702E-02   4.601651E-02   3.385012E-02   2.702296E-02   6.161120E-02   1.047733E-01   6.264491E-02   1.602056E-02   5.107382E-03   3.078277E-03   6.260736E-03   2.625414E-02   9.764060E-02   2.311959E-01   4.976355E-01   6.039391E-01   3.517010E-01   3.041514E-01   2.383306E-01   1.169447E-01   1.613789E-01   1.512330E-01   1.689651E-01   2.634014E-01   3.932526E-01   1.908921E-01   7.720287E-02   2.080185E-02   2.054485E-02   3.007885E-02   6.583168E-02   1.135782E-01   2.563062E-02   1.441602E-02   5.174902E-03   1.537034E-02   5.478457E-02   1.195218E-01   5.631575E-02   8.905365E-02   3.653831E-01   2.269271E-01   5.869276E-02   2.259004E-02   6.514208E-02   4.377259E-02   3.566566E-02   1.576866E-02   1.500973E-02   2.343549E-02   1.670512E-02   5.670515E-02   4.014805E-01   2.020670E-01   6.463297E-02   1.310714E-01   1.487703E-01   5.459804E-02   7.599226E-02   1.140845E-01   1.006881E-01   1.005933E-01   1.579363E-01   2.273402E-01   4.597956E-02   3.666392E-02   8.531732E-02   2.881287E-01   2.649352E-01   1.661710E-01   9.667856E-02   2.830041E-02   2.245758E-01   2.303316E-01   2.425932E-01   1.329246E-01   9.243705E-02   1.079342E-01   2.018244E-01   3.768314E-01   1.729691E-01   2.402283E-02   5.475848E-02   4.416376E-02   1.839014E-01   8.166248E-02   8.374442E-02   1.715239E-01   1.715239E-01   1.152501E-01   5.982800E-02   5.982800E-02   4.107004E-02   3.261732E-02   3.261732E-02   8.593692E-02   8.593692E-02   8.593692E-02   7.731640E-02   7.731640E-02   7.731640E-02   9.177224E-02   9.177224E-02   9.177224E-02   9.177224E-02   9.177224E-02   1.365224E-01   1.365224E-01   1.365224E-01   1.365224E-01   1.365224E-01   1.050659E-01   1.050659E-01   1.050659E-01   1.050659E-01   1.050659E-01   1.050659E-01   1.050659E-01   5.710464E-01   5.710464E-01   5.710464E-01   5.710464E-01   5.710464E-01   5.710464E-01   5.710464E-01   5.710464E-01   5.710464E-01   5.710464E-01   3.090586E-01   3.090586E-01   3.090586E-01   3.090586E-01   3.090586E-01   3.090586E-01   3.090586E-01   3.090586E-01   3.090586E-01   5.284334E-01   5.284334E-01   5.284334E-01   5.284334E-01   5.284334E-01   5.284334E-01   5.284334E-01   2.030687E-01   2.030687E-01   2.030687E-01   2.030687E-01   2.030687E-01   1.081339E-01   1.081339E-01   1.081339E-01   1.081339E-01   1.289861E-01   1.289861E-01   1.289861E-01   4.398534E-02   4.398534E-02   6.397390E-02   6.397390E-02   1.143652E-01   1.143652E-01   7.035898E-02   2.827305E-01   1.335940E-01   1.335940E-01   2.454999E-01   4.493151E-01   5.932579E-02   5.430911E-02   8.915157E-02   1.551228E-01   1.343888E-01   3.910131E-02   2.171398E-02   6.688465E-02   3.351993E-02   1.737548E-02   1.768397E-02   2.787643E-02   7.693686E-02   1.509982E-01   8.063691E-02   8.282602E-02   1.040702E-01   1.097892E-01   1.076454E-01   1.586628E-01   5.193371E-02   1.071748E-01   7.540963E-02   2.084392E-01   7.349321E-02   2.966152E-02   1.344162E-01   1.073556E-01   1.718003E-01   1.001562E-01   2.104767E-01   1.740624E-01   1.533811E-01   6.653628E-02   1.525104E-01   1.023991E-01   1.509351E-01
   9.610207E-02   1.121575E-01   1.006758E-01   7.174993E-02   3.728672E-02   3.507098E-02   1.419737E-01   1.138731E-01   5.621925E-02   1.144705E-02   4.503659E-03   3.458234E-03   4.849303E-03   1.380562E-02   9.153443E-02   2.227059E-01   4.121751E-01   5.013497E-01   1.000944E+00   2.206345E-01   8.271255E-02   7.613636E-02   3.780183E-02   5.940150E-02   1.431395E-01   8.100024E-02   1.341081E-01   1.010684E-01   4.295067E-02   2.065188E-02   1.386982E-02   2.433711E-02   4.592361E-02   3.697001E-02   5.278166E-02   1.025823E-02   1.046787E-02   1.518062E-02   6.288839E-02   1.395792E-01   1.041927E-01   1.279027E-01   1.505522E-01   1.607412E-01   5.770925E-02   5.551093E-02   3.756656E-02   4.927233E-02   3.029691E-02   1.625411E-02   3.045827E-02   1.952024E-02   4.309986E-02   1.134553E-01   2.253819E-01   1.988215E-01   1.615095E-01   2.938992E-01   1.942138E-01   7.018279E-02   1.851629E-01   8.606987E-02   7.726483E-02   1.396699E-01   7.784035E-02   1.537179E-01   4.172845E-02   7.521404E-02   1.262088E-01   3.498918E-01   1.720180E-01   7.591082E-02   6.468412E-02   4.039922E-02   1.387975E-01   4.017414E-01   3.489799E-01   9.396979E-02   1.795755E-01   1.283780E-01   1.002169E-01   2.849852E-01   6.920656E-02   1.999563E-02   4.721857E-02   8.406089E-02   9.118788E-02   1.104804E-01   3.090454E-02   3.062670E-01   3.062670E-01   4.634450E-02   3.868533E-02   3.868533E-02   9.604827E-03   4.603834E-02   4.603834E-02   7.357980E-02   7.357980E-02   7.357980E-02   7.193670E-02   7.193670E-02   7.193670E-02   6.139304E-02   6.139304E-02   6.139304E-02   6.139304E-02   6.139304E-02   9.154439E-02   9.154439E-02   9.154439E-02   9.154439E-02   9.154439E-02   9.406822E-02   9.406822E-02   9.406822E-02   9.406822E-02   9.406822E-02   9.406822E-02   9.406822E-02   3.893911E-01   3.893911E-01   3.893911E-01   3.893911E-01   3.893911E-01   3.893911E-01   3.893911E-01   3.893911E-01   3.893911E-01   3.893911E-01   2.206520E-01   2.206520E-01   2.206520E-01   2.206520E-01   2.206520E-01   2.206520E-01   2.206520E-01   2.206520E-01   2.206520E-01   1.685975E-01   1.685975E-01   1.685975E-01   1.685975E-01   1.685975E-01   1.685975E-01   1.685975E-01   7.960677E-02   7.960677E-02   7.960677E-02   7.960677E-02   7.960677E-02   1.409536E-01   1.409536E-01   1.409536E-01   1.409536E-01   2.964937E-01   2.964937E-01   2.964937E-01   5.634828E-02   5.634828E-02   2.598313E-02   2.598313E-02   1.089793E-01   1.089793E-01   3.997129E-02   1.999715E-01   1.319186E-01   1.319186E-01   2.210912E-01   1.225760E-01   3.774407E-02   3.218341E-02   1.807681E-01   2.349178E-01   1.266054E-01   4.625447E-02   2.374524E-02   5.293417E-02   2.139836E-02   5.164433E-02   4.611602E-02   4.658787E-02   1.314318E-01   3.117671E-01   1.559658E-01   7.165301E-02   8.750752E-02   7.027136E-02   1.283403E-01   1.240168E-01   6.799387E-02   1.107534E-01   9.681906E-02   2.917849E-01   9.313206E-02   6.716444E-02   1.263164E-01   7.299223E-02   2.257897E-01   2.092991E-01   1.044341E-01   2.736178E-01   1.728589E-01   5.933754E-02   8.397862E-02   7.829567E-02   8.640598E-02
   1.047157E-01   2.202149E-01   1.603268E-01   8.698621E-02   1.320660E-01   1.007351E-01   1.680933E-01   1.223620E-01   2.827100E-02   1.149058E-02   4.208073E-03   3.404316E-03   4.757483E-03   2.125751E-02   3.318664E-02   1.400316E-01   3.063748E-01   9.175537E-01   7.933326E-01   1.867683E-01   9.896939E-02   9.713903E-02   8.190996E-02   9.741013E-02   5.071410E-02   2.099102E-02   4.452651E-02   1.245742E-01   4.800976E-02   2.274339E-02   3.439589E-02   2.911199E-02   7.882627E-02   7.998554E-02   1.133788E-01   9.953383E-03   1.568430E-02   1.879959E-02   4.396896E-02   2.078317E-01   1.246870E-01   2.938284E-01   3.047929E-01   1.577034E-01   8.465661E-02   3.298088E-02   2.256153E-02   3.081710E-02   4.326554E-02   2.345734E-02   9.181029E-02   2.461823E-02   7.173060E-02   6.216609E-01   1.595652E-01   2.162757E-01   5.819217E-02   1.390446E-01   1.188158E-01   1.584691E-01   2.504911E-01   2.013225E-01   6.906974E-02   5.105456E-02   7.404207E-02   5.531190E-02   5.008692E-02   4.321680E-02   2.352161E-01   2.328921E-01   2.808240E-01   2.195398E-01   5.296603E-02   5.754280E-02   8.064213E-02   2.782784E-01   2.122886E-01   9.889253E-02   1.411077E-01   1.392503E-01   7.784072E-02   7.634609E-02   3.560820E-02   2.361438E-02   6.758738E-02   1.860163E-01   1.554297E-01   8.440957E-02   6.156642E-02   1.737907E-01   1.737907E-01   8.082794E-02   5.141466E-02   5.141466E-02   2.247181E-02   4.120896E-02   4.120896E-02   4.934629E-02   4.934629E-02   4.934629E-02   5.266368E-02   5.266368E-02   5.266368E-02   3.028721E-02   3.028721E-02   3.028721E-02   3.028721E-02   3.028721E-02   5.148110E-02   5.148110E-02   5.148110E-02   5.148110E-02   5.148110E-02   1.587348E-01   1.587348E-01   1.587348E-01   1.587348E-01   1.587348E-01   1.587348E-01   1.587348E-01   2.057620E-01   2.057620E-01   2.057620E-01   2.057620E-01   2.057620E-01   2.057620E-01   2.057620E-01   2.057620E-01   2.057620E-01   2.057620E-01   1.626334E-01   1.626334E-01   1.626334E-01   1.626334E-01   1.626334E-01   1.626334E-01   1.626334E-01   1.626334E-01   1.626334E-01   1.747954E-01   1.747954E-01   1.747954E-01   1.747954E-01   1.747954E-01   1.747954E-01   1.747954E-01   6.667244E-02   6.667244E-02   6.667244E-02   6.667244E-02   6.667244E-02   1.774247E-01   1.774247E-01   1.774247E-01   1.774247E-01   2.358759E-01   2.358759E-01   2.358759E-01   7.570008E-02   7.570008E-02   4.974617E-02   4.974617E-02   1.409145E-01   1.409145E-01   5.182984E-02   1.299575E-01   3.638964E-01   3.638964E-01   5.960332E-01   1.334852E-01   4.618797E-02   3.255754E-02   1.645086E-01   2.138493E-01   9.694646E-02   2.536849E-02   2.248190E-02   1.129111E-02   1.386334E-02   4.396853E-02   3.474404E-02   7.280784E-02   2.635998E-01   1.571501E-01   2.692188E-01   1.297779E-01   3.885234E-01   1.471929E-01   2.235846E-01   4.036426E-02   1.050987E-01   7.180066E-02   5.966866E-02   9.521280E-02   8.472992E-02   8.583027E-02   1.071956E-01   1.088614E-01   1.745113E-01   3.055342E-01   6.587587E-02   7.304634E-02   8.696633E-02   7.600658E-02   6.048413E-02   4.118085E-02   4.584136E-02
   8.112209E-02   8.337231E-02   1.170448E-01   9.444387E-02   3.322640E-01   1.850704E-01   1.183623E-01   1.274989E-01   1.976943E-02   9.150032E-03   6.817047E-03   4.423990E-03   6.591681E-03   1.911246E-02   3.237447E-02   9.820474E-02   1.423679E-01   2.656619E-01   6.963905E-01   1.778311E-01   9.097334E-02   9.677629E-02   7.044820E-02   5.126629E-02   3.203329E-02   2.965764E-02   3.014574E-02   7.067908E-02   6.808396E-02   2.389904E-02   6.199742E-02   5.714099E-02   7.832446E-02   1.444302E-01   1.130603E-01   2.309508E-02   3.009673E-02   4.805776E-02   9.782680E-02   2.056326E-01   1.748610E-01   2.327119E-01   1.735316E-01   8.142126E-02   5.550882E-02   4.978868E-02   3.160813E-02   4.907174E-02   4.483141E-02   3.855547E-02   4.632699E-02   9.183403E-02   1.113940E-01   9.905502E-01   1.871325E-01   4.481799E-01   8.509085E-02   6.444522E-02   1.184373E-01   1.793716E-01   2.206414E-01   2.453366E-01   9.629088E-02   6.589633E-02   3.185886E-02   2.739679E-02   2.943032E-02   1.185543E-01   2.335396E-01   2.486389E-01   1.334413E-01   2.860746E-01   1.101960E-01   7.068774E-02   5.933279E-02   2.020627E-01   1.654523E-01   9.575882E-02   9.499054E-02   8.944717E-02   1.035249E-01   4.794212E-02   2.122441E-02   1.149586E-02   4.764636E-02   1.270467E-01   9.668017E-02   7.648846E-02   5.791263E-02   7.158194E-02   7.158194E-02   1.521893E-01   4.191045E-02   4.191045E-02   5.459640E-02   3.218914E-02   3.218914E-02   3.507677E-02   3.507677E-02   3.507677E-02   4.263264E-02   4.263264E-02   4.263264E-02   1.868943E-02   1.868943E-02   1.868943E-02   1.868943E-02   1.868943E-02   1.601266E-02   1.601266E-02   1.601266E-02   1.601266E-02   1.601266E-02   1.277694E-01   1.277694E-01   1.277694E-01   1.277694E-01   1.277694E-01   1.277694E-01   1.277694E-01   1.369942E-01   1.369942E-01   1.369942E-01   1.369942E-01   1.369942E-01   1.369942E-01   1.369942E-01   1.369942E-01   1.369942E-01   1.369942E-01   1.512016E-01   1.512016E-01   1.512016E-01   1.512016E-01   1.512016E-01   1.512016E-01   1.512016E-01   1.512016E-01   1.512016E-01   2.776453E-01   2.776453E-01   2.776453E-01   2.776453E-01   2.776453E-01   2.776453E-01   2.776453E-01   6.558694E-02   6.558694E-02   6.558694E-02   6.558694E-02   6.558694E-02   5.637748E-02   5.637748E-02   5.637748E-02   5.637748E-02   1.084262E-01   1.084262E-01   1.084262E-01   1.806248E-01   1.806248E-01   1.441920E-01   1.441920E-01   1.320659E-01   1.320659E-01   6.341711E-02   9.181502E-02   3.356621E-01   3.356621E-01   5.840855E-01   1.544182E-01   1.071191E-01   5.545029E-02   5.323666E-02   1.646523E-01   6.231359E-02   1.986155E-02   1.662289E-02   1.375070E-02   1.972892E-02   5.705946E-02   4.333076E-02   8.406487E-02   1.286429E-01   1.117300E-01   3.143229E-01   3.739963E-01   4.113302E-01   1.975737E-01   1.123228E-01   1.751101E-01   1.723030E-01   7.613205E-02   1.195979E-01   7.347590E-02   9.898245E-02   1.266184E-01   2.021283E-01   1.832798E-01   3.266578E-01   6.451039E-01   2.384730E-01   1.056997E-01   8.482997E-02   8.558521E-02   7.058988E-02   2.238807E-02   1.396338E-02