# LPF package for  MODFLOW-2005, generated by Flopy.
        53    -1E+30         0  
         1
         0
   0.000000E+00
         0
         0
INTERNAL               1 (207E15.6) -1 #hk layer 1                    
   5.197812E-02   7.120188E-02   6.133803E-02   7.672600E-02   9.165102E-02   8.578829E-02   3.099661E-02   2.494153E-02   1.708204E-02   2.112434E-02   3.470492E-02   1.473656E-02   3.928780E-02   8.949794E-02   1.040863E-01   1.898947E-01   2.579793E-01   3.193493E-01   1.267555E-01   1.392200E-01   8.398356E-02   2.044160E-02   4.514807E-02   2.463361E-02   2.557226E-02   8.603249E-02   5.456634E-02   6.625733E-02   5.695771E-02   2.467737E-02   2.764765E-02   4.763758E-02   5.927112E-02   2.829227E-02   1.657484E-02   1.865163E-02   2.103025E-02   6.734875E-02   1.770670E-01   1.484510E-01   1.695442E-01   1.267279E-01   5.470623E-02   6.945954E-02   6.249087E-02   9.602800E-02   8.338661E-02   1.589523E-01   1.674083E-01   1.118722E-01   9.250099E-02   2.608123E-01   1.728662E-01   1.396570E-01   1.514922E-01   3.580830E-02   4.408866E-02   7.976737E-02   1.265435E-01   1.609538E-01   7.843523E-02   1.631657E-02   1.090821E-02   3.659851E-02   3.639276E-02   4.991087E-02   7.496002E-02   3.061050E-02   3.691458E-02   4.112390E-02   4.023335E-02   2.639934E-02   2.023888E-02   3.944564E-02   3.110508E-02   3.068420E-02   4.033804E-02   2.471622E-02   3.559063E-02   1.490652E-02   4.843844E-03   1.145208E-02   4.396372E-02   9.107406E-02   4.319719E-02   5.936395E-02   4.506967E-02   5.381191E-02   5.288023E-02   5.873655E-02   5.873655E-02   1.360404E-01   3.002350E-02   3.002350E-02   7.434067E-02   6.375322E-02   6.375322E-02   1.388173E-01   1.388173E-01   1.388173E-01   5.999952E-02   5.999952E-02   5.999952E-02   5.292033E-02   5.292033E-02   5.292033E-02   5.292033E-02   5.292033E-02   4.595962E-02   4.595962E-02   4.595962E-02   4.595962E-02   4.595962E-02   1.030508E-01   1.030508E-01   1.030508E-01   1.030508E-01   1.030508E-01   1.030508E-01   1.030508E-01   6.839299E-02   6.839299E-02   6.839299E-02   6.839299E-02   6.839299E-02   6.839299E-02   6.839299E-02   6.839299E-02   6.839299E-02   6.839299E-02   1.016824E-01   1.016824E-01   1.016824E-01   1.016824E-01   1.016824E-01   1.016824E-01   1.016824E-01   1.016824E-01   1.016824E-01   2.626154E-01   2.626154E-01   2.626154E-01   2.626154E-01   2.626154E-01   2.626154E-01   2.626154E-01   4.212115E-02   4.212115E-02   4.212115E-02   4.212115E-02   4.212115E-02   5.407252E-02   5.407252E-02   5.407252E-02   5.407252E-02   5.825013E-02   5.825013E-02   5.825013E-02   1.348670E-01   1.348670E-01   9.346696E-02   9.346696E-02   1.078642E-01   1.078642E-01   3.522091E-01   3.358377E-01   2.561309E-01   2.561309E-01   2.078832E-01   2.066990E-01   2.037284E-01   8.950435E-02   1.015029E-01   4.578396E-02   2.788986E-02   3.411711E-02   4.284504E-02   1.453550E-02   2.252547E-02   2.974582E-02   3.611445E-02   4.474324E-02   3.905497E-02   2.189123E-02   4.187359E-02   1.122505E-01   1.545494E-01   1.914048E-01   2.860551E-01   4.011686E-01   1.019697E+00   2.351141E-01   1.158606E-01   8.728977E-02   3.070999E-02   4.004057E-02   2.347831E-02   3.207598E-02   2.653415E-02   2.376874E-02   2.346420E-02   2.700081E-02   3.153392E-02   7.587496E-02   5.615504E-02   1.366569E-01   1.027051E-01
   2.946255E-02   4.279768E-02   5.037872E-02   6.736521E-02   4.222493E-02   7.912040E-02   1.675741E-02   1.411040E-02   2.408163E-02   3.306971E-02   8.315137E-02   2.767641E-02   8.090472E-02   1.879877E-01   7.363233E-02   9.269185E-02   4.174792E-01   4.188654E-01   4.402863E-01   2.895011E-01   4.820212E-02   3.728415E-02   4.151395E-02   1.948177E-02   6.050019E-02   1.033749E-01   7.506076E-02   5.086935E-02   4.747485E-02   2.387099E-02   2.087858E-02   5.223752E-02   4.272538E-02   2.476239E-02   2.261643E-02   6.597386E-02   3.079311E-02   7.701716E-02   1.463145E-01   1.422031E-01   2.390655E-01   1.221561E-01   7.293130E-02   8.453251E-02   1.967492E-02   3.507175E-02   4.558036E-02   7.472925E-02   7.461064E-02   9.092257E-02   9.487358E-02   1.646699E-01   1.893951E-01   8.292676E-02   1.014191E-01   2.915257E-02   3.173327E-02   1.063461E-01   7.701181E-02   1.421486E-01   6.940665E-02   8.051770E-03   1.381981E-02   2.053212E-02   1.075846E-02   3.953507E-02   4.316060E-02   3.418627E-02   3.223520E-02   3.092123E-02   2.920667E-02   1.833610E-02   1.400299E-02   1.366328E-02   1.785600E-02   2.647438E-02   1.805056E-02   3.224207E-02   4.713798E-02   8.584243E-03   6.085298E-03   2.001782E-02   1.787032E-02   1.028207E-01   6.265525E-02   9.454665E-02   4.365930E-02   4.963095E-02   4.033323E-02   2.924193E-02   2.924193E-02   6.593421E-02   1.647892E-02   1.647892E-02   9.079909E-02   6.864719E-02   6.864719E-02   7.636730E-02   7.636730E-02   7.636730E-02   5.998714E-02   5.998714E-02   5.998714E-02   5.242160E-02   5.242160E-02   5.242160E-02   5.242160E-02   5.242160E-02   3.702313E-02   3.702313E-02   3.702313E-02   3.702313E-02   3.702313E-02   9.186590E-02   9.186590E-02   9.186590E-02   9.186590E-02   9.186590E-02   9.186590E-02   9.186590E-02   1.002949E-01   1.002949E-01   1.002949E-01   1.002949E-01   1.002949E-01   1.002949E-01   1.002949E-01   1.002949E-01   1.002949E-01   1.002949E-01   9.758368E-02   9.758368E-02   9.758368E-02   9.758368E-02   9.758368E-02   9.758368E-02   9.758368E-02   9.758368E-02   9.758368E-02   2.237270E-01   2.237270E-01   2.237270E-01   2.237270E-01   2.237270E-01   2.237270E-01   2.237270E-01   4.064988E-02   4.064988E-02   4.064988E-02   4.064988E-02   4.064988E-02   2.108865E-02   2.108865E-02   2.108865E-02   2.108865E-02   6.276018E-02   6.276018E-02   6.276018E-02   1.541400E-01   1.541400E-01   1.033343E-01   1.033343E-01   1.487656E-01   1.487656E-01   3.662093E-01   2.651094E-01   2.848978E-01   2.848978E-01   2.326853E-01   4.356820E-01   1.766688E-01   1.724950E-01   1.025290E-01   1.144429E-01   7.909311E-02   5.290279E-02   5.597123E-02   2.078703E-02   1.873608E-02   1.719282E-02   7.924264E-02   8.453094E-02   3.859094E-02   1.347829E-02   2.010467E-02   7.197933E-02   6.178628E-02   1.958716E-01   3.360112E-01   3.667468E-01   9.264342E-01   2.856880E-01   2.326117E-01   1.726600E-01   3.387604E-02   4.555492E-02   1.968171E-02   5.858586E-02   6.427911E-02   3.750375E-02   4.055630E-02   3.972376E-02   4.750225E-02   7.115712E-02   1.314891E-01   1.568893E-01   7.739587E-02
   2.911038E-02   3.829021E-02   2.445416E-02   7.960336E-02   4.892305E-02   1.934127E-02   1.615005E-02   2.394068E-02   1.506086E-02   3.365882E-02   5.890261E-02   1.013296E-01   1.534934E-01   9.321179E-02   1.434330E-01   2.509285E-01   4.420309E-01   6.283574E-01   2.438055E-01   9.726375E-02   3.481336E-02   2.261930E-02   5.480411E-02   5.824829E-02   5.696985E-02   3.788854E-02   4.543091E-02   6.622612E-02   7.708533E-02   3.075473E-02   2.867243E-02   2.472515E-02   3.987576E-02   1.439027E-02   2.740237E-02   7.102142E-02   4.075376E-02   8.329415E-02   4.129547E-01   2.126361E-01   2.121294E-01   1.107968E-01   3.004671E-02   7.763557E-02   2.617990E-02   3.925163E-02   5.326242E-02   6.200225E-02   5.546223E-02   3.974528E-02   5.270289E-02   1.463678E-01   2.512952E-01   3.932082E-02   5.790028E-02   2.819268E-02   2.235405E-02   6.179528E-02   5.288239E-02   6.129895E-02   1.910927E-02   7.784650E-03   7.645451E-03   9.205902E-03   1.113683E-02   1.509679E-02   2.944560E-02   4.117805E-02   6.692205E-02   7.388850E-02   3.948385E-02   9.443577E-03   1.622184E-02   1.993803E-02   8.873888E-03   1.370215E-02   1.035245E-02   2.718793E-02   5.735637E-02   2.117210E-02   1.283339E-02   3.622343E-02   4.227878E-02   5.793411E-02   6.568951E-02   1.942677E-01   4.056063E-02   7.307903E-02   3.994131E-02   2.997486E-02   2.997486E-02   3.672075E-02   1.520680E-02   1.520680E-02   3.524892E-02   4.039565E-02   4.039565E-02   8.595288E-02   8.595288E-02   8.595288E-02   8.849065E-02   8.849065E-02   8.849065E-02   7.175326E-02   7.175326E-02   7.175326E-02   7.175326E-02   7.175326E-02   1.071431E-01   1.071431E-01   1.071431E-01   1.071431E-01   1.071431E-01   1.195659E-01   1.195659E-01   1.195659E-01   1.195659E-01   1.195659E-01   1.195659E-01   1.195659E-01   8.986458E-02   8.986458E-02   8.986458E-02   8.986458E-02   8.986458E-02   8.986458E-02   8.986458E-02   8.986458E-02   8.986458E-02   8.986458E-02   1.527750E-01   1.527750E-01   1.527750E-01   1.527750E-01   1.527750E-01   1.527750E-01   1.527750E-01   1.527750E-01   1.527750E-01   2.255150E-01   2.255150E-01   2.255150E-01   2.255150E-01   2.255150E-01   2.255150E-01   2.255150E-01   6.921063E-02   6.921063E-02   6.921063E-02   6.921063E-02   6.921063E-02   3.773054E-02   3.773054E-02   3.773054E-02   3.773054E-02   1.328134E-01   1.328134E-01   1.328134E-01   1.232630E-01   1.232630E-01   1.766954E-01   1.766954E-01   1.955709E-01   1.955709E-01   5.316402E-01   8.529972E-01   6.221343E-01   6.221343E-01   3.180478E-01   2.959599E-01   1.823468E-01   9.618006E-02   7.517462E-02   1.281380E-01   1.025084E-01   7.589862E-02   8.932979E-02   2.251568E-02   3.418267E-02   2.932476E-02   1.457536E-01   6.980844E-02   3.783813E-02   1.430061E-02   3.291172E-02   9.065626E-02   7.712679E-02   2.171145E-01   3.201131E-01   3.510835E-01   4.045068E-01   4.137309E-01   2.098490E-01   7.183686E-02   3.482627E-02   5.136611E-02   3.480595E-02   6.168419E-02   1.405662E-01   4.818799E-02   2.727557E-02   5.030166E-02   3.037357E-02   4.299795E-02   7.549965E-02   2.260065E-01   7.421434E-02
   1.840133E-02   1.510794E-02   7.941746E-03   6.205590E-02   1.372466E-02   1.156377E-02   2.121202E-02   1.962488E-02   8.708509E-03   3.152309E-02   3.866567E-02   1.513959E-01   1.402693E-01   6.913848E-02   1.752997E-01   2.040682E-01   4.045813E-01   8.912451E-01   2.162657E-01   1.188090E-01   1.174073E-01   2.459277E-02   1.640638E-01   4.597182E-02   4.004008E-02   2.153013E-02   4.314994E-02   5.475301E-02   1.434700E-01   5.214693E-02   2.512152E-02   1.990998E-02   6.532731E-02   1.752537E-02   3.996563E-02   5.034982E-02   1.076584E-01   2.089910E-01   1.572207E-01   1.211063E-01   2.032486E-01   6.270815E-02   3.256039E-02   7.496253E-02   5.967223E-02   3.691029E-02   2.487141E-02   9.424830E-02   5.441053E-02   6.454267E-02   6.941113E-02   1.411406E-01   1.903570E-01   5.605805E-02   4.622996E-02   3.680802E-02   3.072445E-02   7.416645E-02   6.170598E-02   2.441461E-02   1.125661E-02   1.069950E-02   5.715968E-03   4.268476E-03   2.127696E-02   1.780620E-02   3.015540E-02   5.744622E-02   6.993961E-02   6.065145E-02   3.531690E-02   2.843344E-02   1.608132E-02   1.565692E-02   1.378198E-02   2.517113E-02   2.417036E-02   1.852307E-02   3.897687E-02   2.829361E-02   2.882914E-02   1.928864E-02   3.131485E-02   2.874221E-02   4.654178E-02   1.917958E-01   5.100695E-02   4.630545E-02   1.410608E-01   5.413388E-02   5.413388E-02   3.651656E-02   4.202938E-02   4.202938E-02   1.692786E-02   2.027153E-02   2.027153E-02   1.269542E-01   1.269542E-01   1.269542E-01   1.201839E-01   1.201839E-01   1.201839E-01   1.010252E-01   1.010252E-01   1.010252E-01   1.010252E-01   1.010252E-01   1.492255E-01   1.492255E-01   1.492255E-01   1.492255E-01   1.492255E-01   6.696295E-02   6.696295E-02   6.696295E-02   6.696295E-02   6.696295E-02   6.696295E-02   6.696295E-02   8.108600E-02   8.108600E-02   8.108600E-02   8.108600E-02   8.108600E-02   8.108600E-02   8.108600E-02   8.108600E-02   8.108600E-02   8.108600E-02   2.169702E-01   2.169702E-01   2.169702E-01   2.169702E-01   2.169702E-01   2.169702E-01   2.169702E-01   2.169702E-01   2.169702E-01   1.244928E-01   1.244928E-01   1.244928E-01   1.244928E-01   1.244928E-01   1.244928E-01   1.244928E-01   1.268656E-01   1.268656E-01   1.268656E-01   1.268656E-01   1.268656E-01   2.475942E-02   2.475942E-02   2.475942E-02   2.475942E-02   9.592407E-02   9.592407E-02   9.592407E-02   8.115238E-02   8.115238E-02   1.434912E-01   1.434912E-01   1.832195E-01   1.832195E-01   5.401854E-01   4.104044E-01   6.364237E-01   6.364237E-01   8.151068E-02   3.178481E-01   2.234465E-01   9.062661E-02   1.179573E-01   2.734751E-01   2.124523E-01   1.320298E-01   1.707489E-01   4.742284E-02   1.427353E-02   5.552872E-02   8.281950E-02   8.065199E-02   1.794530E-02   8.849571E-03   1.718322E-02   5.731513E-02   7.540078E-02   2.622727E-01   2.117479E-01   2.013221E-01   3.772611E-01   2.020669E-01   2.197121E-01   9.342416E-02   3.531426E-02   3.022231E-02   5.586288E-02   7.971514E-02   8.808400E-02   5.352619E-02   4.214498E-02   3.967972E-02   2.444035E-02   4.149818E-02   7.931406E-02   1.196443E-01   8.731259E-02
   2.195624E-02   1.025923E-02   1.386325E-02   4.477089E-02   2.462094E-02   9.874197E-03   2.522843E-02   1.173227E-02   1.503576E-02   2.999545E-02   7.202362E-02   1.086170E-01   7.441263E-02   7.448591E-02   1.651320E-01   2.286620E-01   4.201082E-01   6.919235E-01   2.060725E-01   1.149594E-01   1.232423E-01   3.544744E-02   1.077306E-01   3.878336E-02   3.743332E-02   4.340519E-02   5.277467E-02   1.485715E-01   1.674657E-01   8.192357E-02   2.524933E-02   4.004080E-02   7.396973E-02   3.472101E-02   3.473689E-02   8.578347E-02   8.474681E-02   1.660726E-01   1.246150E-01   1.886570E-01   6.339750E-02   9.344225E-02   3.604506E-02   3.417744E-02   7.747472E-02   2.539288E-02   1.692566E-02   4.327216E-02   4.177465E-02   7.243460E-02   8.181340E-02   3.683405E-01   8.715351E-02   3.247227E-02   3.367310E-02   2.510956E-02   5.208041E-02   7.956278E-02   4.550492E-02   3.209695E-02   1.468185E-02   1.296747E-02   9.821773E-03   1.014063E-02   3.344910E-02   4.379780E-02   1.855138E-02   4.232473E-02   6.071282E-02   7.145194E-02   2.880943E-02   1.335361E-02   2.270368E-02   2.840894E-02   2.452500E-02   6.300040E-02   5.074887E-02   1.033224E-01   6.343743E-02   2.661576E-02   3.574248E-02   2.035959E-02   2.559819E-02   2.158888E-02   4.455412E-02   1.299659E-01   8.631651E-02   1.314459E-01   1.891812E-01   3.913936E-02   3.913936E-02   5.440848E-02   3.046007E-02   3.046007E-02   2.647495E-02   3.204845E-02   3.204845E-02   7.506465E-02   7.506465E-02   7.506465E-02   6.386146E-02   6.386146E-02   6.386146E-02   2.455837E-01   2.455837E-01   2.455837E-01   2.455837E-01   2.455837E-01   8.566764E-02   8.566764E-02   8.566764E-02   8.566764E-02   8.566764E-02   1.133307E-01   1.133307E-01   1.133307E-01   1.133307E-01   1.133307E-01   1.133307E-01   1.133307E-01   1.337266E-01   1.337266E-01   1.337266E-01   1.337266E-01   1.337266E-01   1.337266E-01   1.337266E-01   1.337266E-01   1.337266E-01   1.337266E-01   1.825357E-01   1.825357E-01   1.825357E-01   1.825357E-01   1.825357E-01   1.825357E-01   1.825357E-01   1.825357E-01   1.825357E-01   1.058112E-01   1.058112E-01   1.058112E-01   1.058112E-01   1.058112E-01   1.058112E-01   1.058112E-01   1.097024E-01   1.097024E-01   1.097024E-01   1.097024E-01   1.097024E-01   2.429107E-02   2.429107E-02   2.429107E-02   2.429107E-02   6.727514E-02   6.727514E-02   6.727514E-02   7.356110E-02   7.356110E-02   9.124725E-02   9.124725E-02   1.464470E-01   1.464470E-01   5.539740E-01   6.295742E-01   4.866801E-01   4.866801E-01   9.318238E-02   2.435270E-01   8.417124E-02   1.743456E-01   1.376186E-01   1.453311E-01   1.907569E-01   2.399761E-01   1.395944E-01   4.780192E-02   1.706228E-02   5.279659E-02   4.211764E-02   6.404368E-02   3.627953E-02   2.051448E-02   3.103114E-02   8.077288E-02   1.354608E-01   1.691864E-01   1.111797E-01   1.536144E-01   4.270756E-01   1.645406E-01   1.239265E-01   1.336905E-01   7.539267E-02   4.135204E-02   1.740540E-02   2.235428E-02   3.774061E-02   3.794106E-02   5.908602E-02   6.146849E-02   3.071593E-02   3.397822E-02   3.433745E-02   1.262004E-01   1.020858E-01
   2.595540E-02   1.676361E-02   9.891272E-03   1.974613E-02   2.457803E-02   1.246769E-02   2.157936E-02   1.724875E-02   2.413779E-02   4.501195E-02   4.301511E-02   9.978148E-02   8.665606E-02   1.431365E-01   2.106282E-01   3.191921E-01   5.704705E-01   3.582155E-01   2.453262E-01   7.712874E-02   6.255855E-02   4.704704E-02   9.207654E-02   9.444690E-02   6.763758E-02   6.538165E-02   7.994340E-02   1.323309E-01   2.722737E-01   1.564536E-01   1.096218E-01   2.086705E-01   6.527010E-02   3.489023E-02   4.696984E-02   8.405760E-02   7.704747E-02   1.437349E-01   5.968681E-02   7.289184E-02   3.097817E-02   5.656629E-02   3.716299E-02   3.885199E-02   2.899222E-02   4.880679E-02   4.280326E-02   2.980465E-02   5.244305E-02   3.329743E-02   9.874972E-02   1.384314E-01   8.842044E-02   2.571644E-02   4.531957E-02   2.763278E-02   1.840838E-02   5.106407E-02   4.662399E-02   2.137432E-02   2.018305E-02   1.508500E-02   1.065757E-02   9.654034E-03   2.179760E-02   2.320071E-02   3.113844E-02   4.588512E-02   6.630257E-02   5.491586E-02   4.506485E-02   1.018623E-02   1.089910E-02   3.532252E-02   3.215159E-02   6.123627E-02   6.861302E-02   1.224013E-01   4.756980E-02   3.185054E-02   2.064861E-02   3.510714E-02   3.496026E-02   2.789929E-02   3.817093E-02   1.435722E-01   1.046369E-01   1.905834E-01   8.770735E-02   4.225053E-02   4.225053E-02   4.024796E-02   3.330231E-02   3.330231E-02   2.227350E-02   4.405287E-02   4.405287E-02   9.270056E-02   9.270056E-02   9.270056E-02   7.134604E-02   7.134604E-02   7.134604E-02   8.527806E-02   8.527806E-02   8.527806E-02   8.527806E-02   8.527806E-02   1.299915E-01   1.299915E-01   1.299915E-01   1.299915E-01   1.299915E-01   1.513074E-01   1.513074E-01   1.513074E-01   1.513074E-01   1.513074E-01   1.513074E-01   1.513074E-01   1.624008E-01   1.624008E-01   1.624008E-01   1.624008E-01   1.624008E-01   1.624008E-01   1.624008E-01   1.624008E-01   1.624008E-01   1.624008E-01   9.391188E-02   9.391188E-02   9.391188E-02   9.391188E-02   9.391188E-02   9.391188E-02   9.391188E-02   9.391188E-02   9.391188E-02   1.616790E-01   1.616790E-01   1.616790E-01   1.616790E-01   1.616790E-01   1.616790E-01   1.616790E-01   1.091490E-01   1.091490E-01   1.091490E-01   1.091490E-01   1.091490E-01   4.834367E-02   4.834367E-02   4.834367E-02   4.834367E-02   3.693926E-02   3.693926E-02   3.693926E-02   1.682856E-02   1.682856E-02   7.295898E-02   7.295898E-02   2.529263E-01   2.529263E-01   3.885598E-01   7.771832E-01   5.246228E-01   5.246228E-01   1.603831E-01   2.041619E-01   1.068660E-01   3.320486E-01   2.190240E-01   1.179405E-01   1.576370E-01   1.739926E-01   1.618265E-01   1.771152E-01   2.452661E-02   7.108785E-02   2.246731E-02   4.500228E-02   3.572498E-02   6.379907E-02   2.448477E-02   2.902556E-02   1.182809E-01   7.317346E-02   5.968864E-02   1.379400E-01   1.875227E-01   3.940998E-02   7.222550E-02   8.095942E-02   4.606220E-02   3.123621E-02   1.723892E-02   1.843249E-02   4.204169E-02   5.738691E-02   1.172826E-01   6.274642E-02   3.703596E-02   2.322686E-02   6.418541E-02   7.371448E-02   5.249052E-02
   2.227484E-02   1.962439E-02   1.389209E-02   1.539951E-02   1.527894E-02   1.134409E-02   1.284427E-02   1.165444E-02   1.519365E-02   5.256931E-02   3.864024E-02   9.701978E-02   7.023183E-02   7.087605E-02   1.232452E-01   2.603637E-01   5.498948E-01   3.130195E-01   2.580214E-01   5.387103E-02   2.179535E-02   4.286027E-02   9.070989E-02   7.719532E-02   1.253876E-01   1.606848E-01   6.997341E-02   1.978688E-01   4.680901E-01   1.763136E-01   1.475357E-01   1.186330E-01   4.746321E-02   2.391057E-02   6.137751E-02   8.392062E-02   8.999051E-02   1.207113E-01   9.185226E-02   4.377555E-02   2.279604E-02   3.360627E-02   4.216960E-02   2.475146E-02   3.184133E-02   2.739115E-02   8.794703E-02   5.368633E-02   5.915841E-02   8.378682E-02   1.374478E-01   1.193414E-01   1.213243E-01   4.960046E-02   5.505685E-02   4.332168E-02   2.037486E-02   2.663076E-02   9.003957E-02   4.005469E-02   2.788913E-02   2.360914E-02   1.525566E-02   9.739758E-03   2.695585E-02   4.289800E-02   3.620424E-02   5.052284E-02   7.741050E-02   2.011111E-02   3.707534E-02   1.058917E-02   9.843140E-03   3.044943E-02   1.847377E-02   4.917422E-02   1.096200E-01   2.040165E-01   8.603267E-02   4.817338E-02   1.890878E-02   2.434149E-02   5.222994E-02   3.853181E-02   4.978504E-02   1.239078E-01   1.887849E-01   3.628864E-01   8.553404E-02   9.160485E-02   9.160485E-02   3.692972E-02   5.257522E-02   5.257522E-02   3.532348E-02   4.662564E-02   4.662564E-02   1.096781E-01   1.096781E-01   1.096781E-01   6.280598E-02   6.280598E-02   6.280598E-02   6.689217E-02   6.689217E-02   6.689217E-02   6.689217E-02   6.689217E-02   9.953447E-02   9.953447E-02   9.953447E-02   9.953447E-02   9.953447E-02   2.299731E-01   2.299731E-01   2.299731E-01   2.299731E-01   2.299731E-01   2.299731E-01   2.299731E-01   1.200910E-01   1.200910E-01   1.200910E-01   1.200910E-01   1.200910E-01   1.200910E-01   1.200910E-01   1.200910E-01   1.200910E-01   1.200910E-01   3.686429E-02   3.686429E-02   3.686429E-02   3.686429E-02   3.686429E-02   3.686429E-02   3.686429E-02   3.686429E-02   3.686429E-02   9.759639E-02   9.759639E-02   9.759639E-02   9.759639E-02   9.759639E-02   9.759639E-02   9.759639E-02   5.129864E-02   5.129864E-02   5.129864E-02   5.129864E-02   5.129864E-02   4.237688E-02   4.237688E-02   4.237688E-02   4.237688E-02   5.496172E-02   5.496172E-02   5.496172E-02   1.344366E-02   1.344366E-02   5.675885E-02   5.675885E-02   3.359449E-01   3.359449E-01   2.433236E-01   5.881830E-01   4.319956E-01   4.319956E-01   1.832721E-01   1.430147E-01   4.333571E-02   6.755346E-02   2.124618E-01   1.592350E-01   2.031301E-01   1.607161E-01   2.189296E-01   8.350985E-02   5.465441E-02   5.520111E-02   1.442148E-02   2.286747E-02   3.289520E-02   3.346225E-02   2.471709E-02   4.872423E-02   7.110904E-02   5.312301E-02   3.672712E-02   5.151569E-02   4.119236E-02   2.758195E-02   1.062062E-01   8.286523E-02   3.952060E-02   5.856624E-02   3.108067E-02   6.737000E-02   3.558323E-02   3.472272E-02   5.365127E-02   4.075120E-02   7.186478E-02   2.231991E-02   6.391332E-02   1.088440E-01   5.205356E-02
   3.627938E-02   1.799375E-02   2.403338E-02   1.425472E-02   9.432437E-03   7.118254E-03   9.641055E-03   1.064194E-02   1.366504E-02   5.205689E-02   5.846951E-02   6.715620E-02   4.389634E-02   5.283882E-02   6.128631E-02   9.987348E-02   2.865284E-01   2.148776E-01   1.242034E-01   5.496279E-02   2.879558E-02   5.555329E-02   5.861634E-02   6.897233E-02   1.656971E-01   1.771948E-01   1.315366E-01   9.205548E-02   2.833649E-01   1.245134E-01   2.168059E-01   1.491069E-01   4.485635E-02   4.963732E-02   7.504368E-02   8.018995E-02   5.253724E-02   1.930991E-01   2.031817E-02   2.337397E-02   1.944325E-02   1.527713E-02   5.573780E-02   3.553725E-02   5.155672E-02   3.828916E-02   5.627304E-02   3.656981E-02   4.986615E-02   8.960538E-02   1.156139E-01   1.313359E-01   1.376029E-01   1.015582E-01   7.588503E-02   6.985905E-02   3.195523E-02   4.223052E-02   4.497074E-02   1.887525E-02   2.123741E-02   2.154673E-02   2.277541E-02   2.708486E-02   1.891936E-02   2.710945E-02   3.362864E-02   4.866551E-02   3.266883E-02   2.511034E-02   4.471048E-02   2.752987E-02   2.160118E-02   1.953810E-02   2.517937E-02   1.070693E-01   2.074199E-01   1.656696E-01   2.903357E-02   8.921006E-02   2.285453E-02   1.042704E-02   3.103130E-02   3.681714E-02   7.494946E-02   1.642295E-01   2.130841E-01   2.229716E-01   1.052435E-01   5.969158E-02   5.969158E-02   3.858105E-02   1.102094E-01   1.102094E-01   4.004619E-02   7.152028E-02   7.152028E-02   1.636676E-01   1.636676E-01   1.636676E-01   7.470445E-02   7.470445E-02   7.470445E-02   1.247264E-01   1.247264E-01   1.247264E-01   1.247264E-01   1.247264E-01   1.252931E-01   1.252931E-01   1.252931E-01   1.252931E-01   1.252931E-01   3.452101E-01   3.452101E-01   3.452101E-01   3.452101E-01   3.452101E-01   3.452101E-01   3.452101E-01   9.996403E-02   9.996403E-02   9.996403E-02   9.996403E-02   9.996403E-02   9.996403E-02   9.996403E-02   9.996403E-02   9.996403E-02   9.996403E-02   6.409987E-02   6.409987E-02   6.409987E-02   6.409987E-02   6.409987E-02   6.409987E-02   6.409987E-02   6.409987E-02   6.409987E-02   9.773155E-02   9.773155E-02   9.773155E-02   9.773155E-02   9.773155E-02   9.773155E-02   9.773155E-02   6.820677E-02   6.820677E-02   6.820677E-02   6.820677E-02   6.820677E-02   5.373194E-02   5.373194E-02   5.373194E-02   5.373194E-02   4.601648E-02   4.601648E-02   4.601648E-02   1.399168E-02   1.399168E-02   5.836323E-02   5.836323E-02   1.788533E-01   1.788533E-01   2.991897E-01   3.138102E-01   3.765384E-01   3.765384E-01   1.146555E-01   1.260771E-01   5.647885E-02   1.637005E-01   1.509023E-01   2.041548E-01   2.194229E-01   1.055478E-01   1.610399E-01   6.128171E-02   5.370880E-02   2.633890E-02   1.611612E-02   1.466537E-02   4.041902E-02   4.596496E-02   4.876110E-02   6.550738E-02   6.470975E-02   2.845690E-02   2.333205E-02   2.287862E-02   3.381345E-02   2.572093E-02   5.141684E-02   5.746840E-02   5.167666E-02   5.918343E-02   3.520432E-02   2.734542E-02   2.067935E-02   2.915790E-02   3.232120E-02   4.679006E-02   2.710516E-02   2.246850E-02   4.432331E-02   1.285440E-01   2.546742E-02
   3.915848E-02   4.129301E-02   3.714730E-02   2.175276E-02   1.328980E-02   4.115358E-03   6.658240E-03   9.441247E-03   7.775401E-03   3.846649E-02   4.869137E-02   2.760995E-02   3.199243E-02   2.847048E-02   5.638514E-02   9.128077E-02   1.287684E-01   1.391306E-01   1.197999E-01   6.822012E-02   2.144628E-02   2.638341E-02   8.133629E-02   8.412953E-02   1.914813E-01   2.154058E-01   1.506404E-01   2.005865E-01   1.674209E-01   5.397233E-02   2.388449E-01   2.569598E-01   4.263816E-02   3.136908E-02   6.592549E-02   8.510060E-02   4.061855E-02   6.227428E-02   1.263594E-02   2.249568E-02   2.493302E-02   2.505863E-02   6.326813E-02   3.211048E-02   2.965171E-02   5.859457E-02   6.632298E-02   1.087466E-01   5.318667E-02   8.495560E-02   1.251410E-01   9.802987E-02   2.535880E-01   1.334479E-01   2.278064E-01   1.177295E-01   7.985455E-02   7.383898E-02   4.167420E-02   2.140885E-02   1.251857E-02   1.897581E-02   2.449920E-02   3.147126E-02   2.930185E-02   1.504851E-02   3.741096E-02   5.094447E-02   2.319269E-02   3.715594E-02   4.195049E-02   3.919968E-02   4.125786E-02   7.601492E-02   2.255039E-02   1.259646E-01   9.224447E-02   1.028627E-01   4.985600E-02   3.362560E-02   2.744865E-02   1.100080E-02   1.934904E-02   1.680264E-02   2.405149E-02   7.017718E-02   1.389014E-01   2.917102E-01   1.934378E-01   5.542666E-02   5.542666E-02   3.369476E-02   7.904020E-02   7.904020E-02   5.256624E-02   7.893189E-02   7.893189E-02   1.267256E-01   1.267256E-01   1.267256E-01   7.998504E-02   7.998504E-02   7.998504E-02   1.298281E-01   1.298281E-01   1.298281E-01   1.298281E-01   1.298281E-01   8.781374E-02   8.781374E-02   8.781374E-02   8.781374E-02   8.781374E-02   2.163837E-01   2.163837E-01   2.163837E-01   2.163837E-01   2.163837E-01   2.163837E-01   2.163837E-01   2.806214E-01   2.806214E-01   2.806214E-01   2.806214E-01   2.806214E-01   2.806214E-01   2.806214E-01   2.806214E-01   2.806214E-01   2.806214E-01   1.257899E-01   1.257899E-01   1.257899E-01   1.257899E-01   1.257899E-01   1.257899E-01   1.257899E-01   1.257899E-01   1.257899E-01   1.525500E-01   1.525500E-01   1.525500E-01   1.525500E-01   1.525500E-01   1.525500E-01   1.525500E-01   1.007263E-01   1.007263E-01   1.007263E-01   1.007263E-01   1.007263E-01   3.582184E-02   3.582184E-02   3.582184E-02   3.582184E-02   4.023847E-02   4.023847E-02   4.023847E-02   4.193696E-02   4.193696E-02   9.117365E-02   9.117365E-02   8.666579E-02   8.666579E-02   1.950027E-01   2.313593E-01   1.656927E-01   1.656927E-01   1.119632E-01   9.133358E-02   4.515457E-02   1.585527E-01   1.061176E-01   1.420220E-01   3.216355E-01   5.913388E-02   6.512102E-02   4.690907E-02   4.402736E-02   2.180707E-02   1.776745E-02   1.797145E-02   9.175739E-02   4.634795E-02   4.651911E-02   6.821620E-02   5.562826E-02   2.752452E-02   2.706125E-02   2.552708E-02   1.577512E-02   2.375380E-02   6.088588E-02   4.559912E-02   8.188521E-02   2.877404E-02   2.705218E-02   1.656870E-02   6.616020E-03   8.356294E-03   1.611760E-02   3.470737E-02   5.967355E-02   2.941606E-02   6.163505E-02   1.428465E-01   7.088050E-02