# LPF package for  MODFLOW-2005, generated by Flopy.
        53    -1E+30         0  
         1
         0
   0.000000E+00
         0
         0
INTERNAL               1 (207E15.6) -1 #hk layer 1                    
   2.506444E-02   6.739992E-02   1.060970E-01   1.853963E-01   1.002865E-01   5.479988E-02   1.347305E-01   1.334746E-01   1.200063E-01   2.350030E-01   9.065459E-02   8.495931E-02   2.888919E-02   7.816207E-02   5.306305E-02   5.104515E-02   3.258853E-02   5.676384E-02   8.130327E-02   3.883862E-02   4.616421E-03   1.238768E-02   1.286771E-02   1.748452E-02   1.911423E-02   6.124707E-02   3.810822E-02   3.130668E-02   7.204524E-02   2.785802E-02   6.620981E-02   3.553794E-02   1.491284E-02   1.711183E-02   1.474507E-02   1.094021E-02   1.739802E-02   3.619586E-02   4.651543E-02   9.405174E-02   5.667990E-02   4.435373E-02   3.406343E-02   4.940389E-02   2.803404E-02   2.328703E-02   1.252151E-02   4.415489E-02   1.242461E-01   1.798110E-01   4.439134E-02   4.502093E-02   4.136749E-02   1.749019E-02   1.742183E-02   1.697454E-02   2.304965E-02   3.583546E-02   2.027454E-02   1.738050E-02   1.997549E-02   7.031368E-02   6.907922E-02   1.774843E-01   1.572024E-01   8.847202E-02   1.176475E-01   3.578258E-02   2.196994E-02   2.547220E-02   2.050303E-02   1.487437E-02   7.817223E-03   8.558971E-03   6.239987E-03   1.424609E-02   1.923671E-02   2.291018E-02   4.280891E-02   5.627232E-02   2.758707E-02   5.819380E-02   4.256037E-02   3.864850E-02   5.637032E-02   4.927209E-02   4.182632E-02   5.434708E-02   8.475506E-02   1.244894E-01   1.244894E-01   1.938696E-01   6.536201E-02   6.536201E-02   4.129032E-02   4.473384E-02   4.473384E-02   3.122236E-02   3.122236E-02   3.122236E-02   1.126457E-01   1.126457E-01   1.126457E-01   6.186356E-01   6.186356E-01   6.186356E-01   6.186356E-01   6.186356E-01   5.258004E-01   5.258004E-01   5.258004E-01   5.258004E-01   5.258004E-01   1.229317E-01   1.229317E-01   1.229317E-01   1.229317E-01   1.229317E-01   1.229317E-01   1.229317E-01   5.073839E-02   5.073839E-02   5.073839E-02   5.073839E-02   5.073839E-02   5.073839E-02   5.073839E-02   5.073839E-02   5.073839E-02   5.073839E-02   6.642879E-02   6.642879E-02   6.642879E-02   6.642879E-02   6.642879E-02   6.642879E-02   6.642879E-02   6.642879E-02   6.642879E-02   5.326205E-02   5.326205E-02   5.326205E-02   5.326205E-02   5.326205E-02   5.326205E-02   5.326205E-02   4.461588E-02   4.461588E-02   4.461588E-02   4.461588E-02   4.461588E-02   3.818299E-02   3.818299E-02   3.818299E-02   3.818299E-02   2.723335E-02   2.723335E-02   2.723335E-02   6.308296E-02   6.308296E-02   1.967399E-02   1.967399E-02   4.466521E-02   4.466521E-02   6.846938E-02   4.546639E-02   3.954404E-02   3.954404E-02   3.574409E-02   6.540418E-02   1.230258E-01   8.298317E-02   4.620859E-01   1.204074E-01   1.013117E-01   1.349283E-01   1.852130E-02   8.119009E-03   2.220271E-02   1.813244E-02   2.494167E-02   4.432427E-02   1.224087E-01   2.129075E-01   1.074210E-01   5.203551E-02   3.106982E-02   7.377252E-02   3.692814E-02   7.517578E-02   1.320721E-01   1.585995E-01   1.260817E-01   3.487196E-01   1.093104E-01   4.852862E-02   1.210632E-02   2.506872E-02   4.913854E-02   1.662549E-01   1.283429E-01   1.950143E-01   6.822907E-02   2.993250E-02   2.577813E-02   5.241170E-02   4.132773E-02
   2.806082E-02   1.780080E-02   4.188458E-02   1.621889E-01   1.410191E-01   6.220777E-02   1.036306E-01   1.939718E-01   1.526171E-01   2.584999E-01   1.447941E-01   6.064987E-02   2.339993E-02   2.720537E-02   5.618789E-02   4.549205E-02   7.245342E-02   4.740392E-02   1.097553E-01   3.578490E-02   8.798031E-03   1.285535E-02   1.501465E-02   3.324151E-02   2.633302E-02   4.996464E-02   1.006652E-01   4.589396E-02   7.997743E-02   5.149328E-02   7.541047E-02   5.056554E-02   1.600578E-02   9.292447E-03   1.296842E-02   6.803091E-03   1.713493E-02   2.072852E-02   3.648058E-02   1.944761E-01   7.335615E-02   9.817036E-02   4.397792E-02   5.463497E-02   2.399331E-02   2.917380E-02   2.473978E-02   3.978233E-02   9.513177E-02   8.691389E-02   7.844334E-02   7.555381E-02   1.511920E-02   7.341654E-03   8.980162E-03   1.759060E-02   3.763428E-02   5.581394E-02   2.897802E-02   2.471144E-02   5.683072E-02   7.920190E-02   8.204009E-02   1.426844E-01   8.973027E-02   1.328478E-01   5.897858E-02   5.421523E-02   5.223571E-02   2.501208E-02   3.386807E-02   2.424476E-02   1.887058E-02   8.253577E-03   1.089117E-02   2.402382E-02   4.380732E-02   3.261810E-02   3.738184E-02   3.265747E-02   2.356519E-02   3.364373E-02   3.431017E-02   2.425854E-02   4.162702E-02   3.665835E-02   6.675578E-02   8.836378E-02   7.371259E-02   7.267046E-02   7.267046E-02   1.159192E-01   5.416058E-02   5.416058E-02   2.931458E-02   4.359222E-02   4.359222E-02   8.364596E-02   8.364596E-02   8.364596E-02   1.128900E-01   1.128900E-01   1.128900E-01   5.676036E-01   5.676036E-01   5.676036E-01   5.676036E-01   5.676036E-01   1.332786E+00   1.332786E+00   1.332786E+00   1.332786E+00   1.332786E+00   2.356977E-01   2.356977E-01   2.356977E-01   2.356977E-01   2.356977E-01   2.356977E-01   2.356977E-01   3.708315E-02   3.708315E-02   3.708315E-02   3.708315E-02   3.708315E-02   3.708315E-02   3.708315E-02   3.708315E-02   3.708315E-02   3.708315E-02   3.295235E-02   3.295235E-02   3.295235E-02   3.295235E-02   3.295235E-02   3.295235E-02   3.295235E-02   3.295235E-02   3.295235E-02   3.009862E-02   3.009862E-02   3.009862E-02   3.009862E-02   3.009862E-02   3.009862E-02   3.009862E-02   2.452364E-02   2.452364E-02   2.452364E-02   2.452364E-02   2.452364E-02   3.528142E-02   3.528142E-02   3.528142E-02   3.528142E-02   2.598936E-02   2.598936E-02   2.598936E-02   2.401029E-02   2.401029E-02   1.082480E-02   1.082480E-02   2.496451E-02   2.496451E-02   9.191086E-02   3.473626E-02   2.816100E-02   2.816100E-02   9.377930E-02   8.862429E-02   3.008584E-02   1.004754E-01   1.667134E-01   1.236125E-01   1.046197E-01   5.007775E-02   3.722014E-02   2.411476E-02   2.762962E-02   3.820141E-02   9.547561E-03   5.844678E-02   8.221534E-02   1.028984E-01   5.052282E-02   1.403062E-02   1.913841E-02   3.630957E-02   3.390137E-02   4.202652E-02   7.798929E-02   2.640115E-01   1.798385E-01   1.107009E-01   1.107096E-01   7.131394E-02   7.756993E-03   4.192786E-02   5.252188E-02   7.646319E-02   1.213984E-01   1.720508E-01   1.034111E-01   2.010219E-02   2.115564E-02   3.602823E-02   4.373822E-02
   5.124055E-03   2.286645E-02   3.517867E-02   9.455459E-02   7.533717E-02   1.437176E-01   1.070965E-01   1.311477E-01   3.586047E-01   2.145151E-01   2.158234E-01   2.610007E-02   7.021781E-02   1.328322E-02   6.037759E-02   3.882419E-02   1.053204E-01   5.069605E-02   8.396614E-02   2.141676E-02   1.186509E-02   1.197056E-02   1.672521E-02   2.806983E-02   2.632209E-02   3.951699E-02   1.036047E-01   6.970460E-02   3.583775E-02   4.685669E-02   8.126206E-02   2.687903E-02   2.777805E-02   1.336291E-02   1.623962E-02   9.930725E-03   1.097670E-02   1.778142E-02   9.520416E-02   1.512095E-01   6.858099E-02   9.064401E-02   6.724960E-02   7.656813E-02   2.655785E-02   3.390402E-02   4.484312E-02   3.486065E-02   4.778729E-02   3.432825E-02   1.182433E-01   9.139976E-02   7.388895E-03   3.122458E-03   7.171858E-03   2.232290E-02   2.743838E-02   8.506708E-02   3.061728E-02   5.700331E-02   1.318481E-01   7.931314E-02   6.786296E-02   1.429509E-01   9.090699E-02   2.004433E-01   7.954975E-02   6.563906E-02   3.893599E-02   4.365367E-02   2.974349E-02   3.014704E-02   1.547432E-02   1.083572E-02   4.634136E-02   4.542089E-02   2.538644E-02   2.115748E-02   4.456195E-02   3.768987E-02   2.236070E-02   2.031926E-02   1.765000E-02   2.056432E-02   3.968384E-02   2.715614E-02   8.961014E-02   1.140707E-01   5.993615E-02   7.094616E-02   7.094616E-02   9.007527E-02   4.426843E-02   4.426843E-02   1.321504E-02   3.517996E-02   3.517996E-02   2.289489E-02   2.289489E-02   2.289489E-02   1.421742E-01   1.421742E-01   1.421742E-01   1.879147E-01   1.879147E-01   1.879147E-01   1.879147E-01   1.879147E-01   3.321185E-01   3.321185E-01   3.321185E-01   3.321185E-01   3.321185E-01   6.348691E-02   6.348691E-02   6.348691E-02   6.348691E-02   6.348691E-02   6.348691E-02   6.348691E-02   1.228150E-02   1.228150E-02   1.228150E-02   1.228150E-02   1.228150E-02   1.228150E-02   1.228150E-02   1.228150E-02   1.228150E-02   1.228150E-02   1.021726E-02   1.021726E-02   1.021726E-02   1.021726E-02   1.021726E-02   1.021726E-02   1.021726E-02   1.021726E-02   1.021726E-02   4.162140E-02   4.162140E-02   4.162140E-02   4.162140E-02   4.162140E-02   4.162140E-02   4.162140E-02   2.506477E-02   2.506477E-02   2.506477E-02   2.506477E-02   2.506477E-02   3.784335E-02   3.784335E-02   3.784335E-02   3.784335E-02   1.738262E-02   1.738262E-02   1.738262E-02   1.665894E-02   1.665894E-02   1.855370E-02   1.855370E-02   2.264838E-02   2.264838E-02   4.039647E-02   1.784662E-02   3.548563E-02   3.548563E-02   3.900051E-02   7.210366E-02   1.218210E-02   4.516832E-02   1.695770E-01   6.784603E-02   1.179755E-01   1.976471E-01   7.350315E-02   1.668799E-02   3.481244E-02   4.558703E-02   1.145378E-02   9.107537E-02   1.588182E-01   2.752508E-01   5.082135E-02   2.510675E-02   2.309083E-02   2.022616E-02   8.677498E-03   3.371572E-02   6.164753E-02   1.303173E-01   1.244367E-01   9.591338E-02   1.016804E-01   7.802794E-02   2.979869E-02   7.531075E-02   4.529976E-02   9.952210E-02   1.950632E-01   9.310299E-02   7.397298E-02   2.357364E-02   3.689354E-02   1.832591E-02   1.947962E-02
   4.699248E-03   1.649047E-02   4.754630E-02   1.003699E-01   4.875389E-02   4.120016E-02   4.606395E-02   8.930658E-02   1.560918E-01   8.515000E-02   1.700431E-01   2.186663E-02   3.891148E-02   1.033462E-02   3.287441E-02   2.467721E-02   1.040031E-01   7.247196E-02   6.271289E-02   1.509569E-02   1.428724E-02   4.420951E-03   1.892889E-02   2.072370E-02   4.003844E-02   2.614839E-02   6.508149E-02   8.580649E-02   6.763495E-02   5.714576E-02   1.169658E-01   1.783268E-02   1.440764E-02   2.072492E-02   1.239082E-02   7.079233E-03   1.650170E-02   3.869788E-02   8.474176E-02   6.035601E-02   3.027681E-02   4.485048E-02   7.503352E-02   7.779340E-02   3.779927E-02   2.025052E-02   4.180792E-02   2.586273E-02   1.948145E-02   2.541880E-02   8.689479E-02   4.782882E-02   6.771188E-03   9.316719E-03   4.537644E-03   2.438203E-02   3.542699E-02   1.349672E-01   6.186874E-02   6.389157E-02   1.428616E-01   1.286083E-01   4.038202E-02   1.087133E-01   6.582347E-02   1.205340E-01   7.511554E-02   7.111148E-02   8.248007E-02   2.847777E-02   2.593696E-02   3.180783E-02   1.522484E-02   1.376038E-02   2.342769E-02   1.788778E-02   1.567488E-02   2.501892E-02   5.546547E-02   3.475820E-02   1.478725E-02   5.067810E-02   2.046541E-02   1.868034E-02   6.018676E-02   5.791907E-02   9.343119E-02   5.339688E-02   1.151455E-01   8.173923E-02   8.173923E-02   3.787155E-02   5.039104E-02   5.039104E-02   3.524211E-02   4.144966E-02   4.144966E-02   2.274650E-02   2.274650E-02   2.274650E-02   1.258135E-01   1.258135E-01   1.258135E-01   1.309996E-01   1.309996E-01   1.309996E-01   1.309996E-01   1.309996E-01   2.001186E-01   2.001186E-01   2.001186E-01   2.001186E-01   2.001186E-01   3.537622E-02   3.537622E-02   3.537622E-02   3.537622E-02   3.537622E-02   3.537622E-02   3.537622E-02   2.094636E-02   2.094636E-02   2.094636E-02   2.094636E-02   2.094636E-02   2.094636E-02   2.094636E-02   2.094636E-02   2.094636E-02   2.094636E-02   6.716348E-03   6.716348E-03   6.716348E-03   6.716348E-03   6.716348E-03   6.716348E-03   6.716348E-03   6.716348E-03   6.716348E-03   2.611228E-02   2.611228E-02   2.611228E-02   2.611228E-02   2.611228E-02   2.611228E-02   2.611228E-02   1.303753E-02   1.303753E-02   1.303753E-02   1.303753E-02   1.303753E-02   4.217026E-02   4.217026E-02   4.217026E-02   4.217026E-02   4.317456E-02   4.317456E-02   4.317456E-02   1.271394E-02   1.271394E-02   9.083106E-03   9.083106E-03   1.211941E-02   1.211941E-02   2.134125E-02   2.128617E-02   3.277599E-02   3.277599E-02   5.418428E-02   1.002323E-01   2.155030E-02   1.494976E-02   1.007248E-01   1.328186E-01   1.063420E-01   1.009390E-01   3.413268E-02   2.129748E-02   2.236237E-02   6.137177E-02   1.517022E-02   9.590751E-02   8.331858E-02   2.287222E-01   4.351558E-02   2.258948E-02   1.956897E-02   1.068218E-02   5.411259E-03   2.096375E-02   3.701662E-02   4.466256E-02   7.698700E-02   6.117495E-02   7.964192E-02   1.256147E-01   5.227216E-02   6.455799E-02   6.980258E-02   5.610081E-02   9.001736E-02   5.928634E-02   6.168553E-02   2.052847E-02   2.243590E-02   1.371159E-02   1.427045E-02
   7.709871E-03   8.510876E-03   4.868195E-02   5.615268E-02   6.164157E-02   3.186496E-02   2.609115E-02   3.070555E-02   8.452649E-02   6.687384E-02   6.803326E-02   4.933391E-02   3.338112E-02   2.911371E-02   3.462118E-02   3.469028E-02   6.953767E-02   7.463197E-02   3.379099E-02   1.881108E-02   1.913789E-02   9.456194E-03   2.481908E-02   5.042547E-02   4.459190E-02   3.560086E-02   6.158890E-02   7.163609E-02   1.308613E-01   8.611225E-02   1.014625E-01   2.667507E-02   8.063266E-03   2.760579E-02   9.962495E-03   1.299753E-02   2.036786E-02   1.353100E-02   3.113868E-02   2.614225E-02   3.950363E-02   7.144135E-02   8.036780E-02   8.590315E-02   3.931083E-02   1.945946E-02   5.176133E-02   1.892827E-02   1.197470E-02   2.026631E-02   2.862903E-02   3.504427E-02   6.908132E-03   1.150977E-02   7.173139E-03   2.018398E-02   3.725646E-02   1.734639E-01   1.208362E-01   1.224898E-01   9.502143E-02   9.944179E-02   4.283646E-02   1.020233E-01   1.276314E-01   5.675796E-02   7.077882E-02   6.372676E-02   8.247398E-02   2.686933E-02   1.998397E-02   4.242428E-02   1.941205E-02   2.678400E-02   3.103315E-02   3.137581E-02   1.320792E-02   3.984049E-02   1.451523E-01   2.815191E-02   2.333789E-02   2.969191E-02   1.997761E-02   3.138217E-02   9.719912E-02   1.764845E-01   1.597749E-01   7.956044E-02   1.690714E-01   6.215235E-02   6.215235E-02   7.117798E-02   5.142257E-02   5.142257E-02   5.948999E-02   3.231086E-02   3.231086E-02   6.867823E-03   6.867823E-03   6.867823E-03   1.492667E-01   1.492667E-01   1.492667E-01   1.390427E-01   1.390427E-01   1.390427E-01   1.390427E-01   1.390427E-01   2.023932E-01   2.023932E-01   2.023932E-01   2.023932E-01   2.023932E-01   5.990100E-02   5.990100E-02   5.990100E-02   5.990100E-02   5.990100E-02   5.990100E-02   5.990100E-02   4.483004E-02   4.483004E-02   4.483004E-02   4.483004E-02   4.483004E-02   4.483004E-02   4.483004E-02   4.483004E-02   4.483004E-02   4.483004E-02   1.011125E-02   1.011125E-02   1.011125E-02   1.011125E-02   1.011125E-02   1.011125E-02   1.011125E-02   1.011125E-02   1.011125E-02   4.769890E-02   4.769890E-02   4.769890E-02   4.769890E-02   4.769890E-02   4.769890E-02   4.769890E-02   3.197246E-02   3.197246E-02   3.197246E-02   3.197246E-02   3.197246E-02   4.139879E-02   4.139879E-02   4.139879E-02   4.139879E-02   4.090395E-02   4.090395E-02   4.090395E-02   1.929659E-02   1.929659E-02   1.061297E-02   1.061297E-02   1.147012E-02   1.147012E-02   4.301164E-02   4.527220E-02   1.111041E-01   1.111041E-01   1.542849E-01   9.253550E-02   2.553924E-02   1.503783E-02   1.343385E-02   7.979142E-02   5.187239E-02   1.107075E-01   5.092427E-02   6.291420E-02   2.693362E-02   4.633064E-02   1.449818E-02   5.518841E-02   9.115504E-02   8.196267E-02   8.708212E-02   2.030321E-02   1.268046E-02   1.680569E-02   5.357969E-03   5.310114E-02   3.918720E-02   7.030068E-02   4.925710E-02   2.202205E-02   3.786154E-02   5.513642E-02   6.325669E-02   3.386680E-02   5.974214E-02   6.110481E-02   3.699950E-02   3.520173E-02   3.011161E-02   2.407240E-02   1.082698E-02   1.425121E-02   9.463284E-03
   1.547622E-02   6.589961E-03   3.233062E-02   1.757956E-02   3.619302E-02   3.375199E-02   1.680975E-02   7.849187E-02   1.254244E-01   8.001646E-02   6.281311E-02   4.464583E-02   5.303363E-02   2.704174E-02   3.355325E-02   7.677878E-02   1.146866E-01   8.306291E-02   4.212251E-02   2.015076E-02   1.598151E-02   9.585659E-03   4.966770E-02   4.940223E-02   3.060367E-02   6.769991E-02   1.197422E-01   8.865972E-02   1.376587E-01   9.005998E-02   8.207260E-02   2.828075E-02   6.015053E-03   1.686938E-02   7.880371E-03   2.846148E-02   3.176553E-02   3.039140E-02   1.845603E-02   1.984210E-02   2.374987E-02   5.411244E-02   1.152484E-01   9.118174E-02   6.465208E-02   3.128112E-02   4.429114E-02   1.869389E-02   1.930021E-02   4.291895E-02   3.974525E-02   2.007702E-02   1.932530E-02   2.560209E-02   1.258035E-02   1.819944E-02   6.798756E-02   1.749305E-01   6.696239E-02   7.743865E-02   3.213429E-02   3.994790E-02   3.705711E-02   8.316649E-02   1.093819E-01   9.219034E-02   6.243904E-02   3.214850E-02   6.766595E-02   1.282652E-02   7.291626E-03   4.377811E-02   1.841900E-02   2.580361E-02   1.572175E-02   6.150357E-02   1.927544E-02   4.169775E-02   7.115168E-02   9.654172E-02   1.035689E-01   3.749878E-02   4.081199E-02   3.992337E-02   8.525814E-02   5.236145E-01   1.072553E-01   7.327916E-02   5.414959E-02   4.923347E-02   4.923347E-02   8.794256E-02   4.985599E-02   4.985599E-02   4.357547E-02   2.962611E-02   2.962611E-02   1.193583E-02   1.193583E-02   1.193583E-02   1.477425E-01   1.477425E-01   1.477425E-01   7.122471E-02   7.122471E-02   7.122471E-02   7.122471E-02   7.122471E-02   7.137278E-02   7.137278E-02   7.137278E-02   7.137278E-02   7.137278E-02   6.535003E-02   6.535003E-02   6.535003E-02   6.535003E-02   6.535003E-02   6.535003E-02   6.535003E-02   2.932287E-02   2.932287E-02   2.932287E-02   2.932287E-02   2.932287E-02   2.932287E-02   2.932287E-02   2.932287E-02   2.932287E-02   2.932287E-02   7.891593E-03   7.891593E-03   7.891593E-03   7.891593E-03   7.891593E-03   7.891593E-03   7.891593E-03   7.891593E-03   7.891593E-03   3.051697E-02   3.051697E-02   3.051697E-02   3.051697E-02   3.051697E-02   3.051697E-02   3.051697E-02   2.574807E-02   2.574807E-02   2.574807E-02   2.574807E-02   2.574807E-02   3.118142E-02   3.118142E-02   3.118142E-02   3.118142E-02   5.220266E-02   5.220266E-02   5.220266E-02   3.023751E-02   3.023751E-02   1.485954E-02   1.485954E-02   2.091437E-02   2.091437E-02   4.351924E-02   6.505748E-02   4.272707E-01   4.272707E-01   1.269330E-01   1.280822E-01   2.954984E-02   2.421682E-02   2.815659E-02   5.315822E-02   1.067688E-01   2.167816E-01   2.059363E-01   8.164169E-02   4.690984E-02   2.920906E-02   2.647094E-02   4.335559E-02   7.305948E-02   3.419288E-02   6.235576E-02   2.626352E-02   2.281394E-02   3.019474E-02   1.162669E-02   2.265849E-02   1.771066E-02   2.593285E-02   2.205702E-02   1.673333E-02   2.342453E-02   4.565005E-02   6.989463E-02   7.597965E-02   6.290846E-02   6.576601E-02   2.273646E-02   1.264497E-02   1.963663E-02   1.220582E-02   6.142252E-03   8.305162E-03   2.579013E-02
   3.809486E-03   8.217391E-03   1.036449E-02   2.237194E-02   2.423158E-02   3.741148E-02   1.856404E-02   4.832520E-02   1.050441E-01   1.082960E-01   1.006487E-01   9.342131E-02   7.913753E-02   9.008075E-02   5.221864E-02   1.679066E-02   9.769373E-02   3.650768E-02   7.090654E-02   3.326450E-02   9.432876E-03   2.518763E-02   9.011773E-02   8.873452E-02   4.380743E-02   7.063133E-02   1.180106E-01   1.722612E-01   1.501239E-01   1.027869E-01   9.388968E-02   1.275313E-02   1.039868E-02   1.218225E-02   1.200950E-02   2.452187E-02   2.600305E-02   1.929474E-02   2.727448E-02   4.560423E-02   3.576763E-02   6.511740E-02   5.839337E-02   4.929393E-02   9.849878E-02   4.610374E-02   3.272748E-02   1.663547E-02   1.952484E-02   1.867478E-02   2.475830E-02   1.866274E-02   6.154056E-02   1.560673E-02   1.262586E-02   4.572960E-02   5.602449E-02   7.279269E-02   1.369525E-01   1.349136E-01   3.109560E-02   1.915033E-02   2.478955E-02   5.052449E-02   9.185413E-02   2.903453E-01   3.588313E-02   3.864022E-02   4.795478E-02   1.384062E-02   1.518900E-02   8.300257E-02   2.533047E-02   3.272941E-02   9.926730E-03   4.577302E-02   3.018211E-02   2.473387E-02   5.379921E-02   1.431717E-01   5.100648E-02   2.219849E-02   4.105614E-02   9.405603E-02   3.076975E-01   2.928633E-01   8.248713E-02   9.173252E-02   5.557059E-02   4.878244E-02   4.878244E-02   9.245403E-02   9.512039E-02   9.512039E-02   3.320567E-02   1.430310E-02   1.430310E-02   2.695281E-02   2.695281E-02   2.695281E-02   6.476093E-02   6.476093E-02   6.476093E-02   1.233637E-01   1.233637E-01   1.233637E-01   1.233637E-01   1.233637E-01   3.050300E-02   3.050300E-02   3.050300E-02   3.050300E-02   3.050300E-02   3.579813E-02   3.579813E-02   3.579813E-02   3.579813E-02   3.579813E-02   3.579813E-02   3.579813E-02   3.456090E-02   3.456090E-02   3.456090E-02   3.456090E-02   3.456090E-02   3.456090E-02   3.456090E-02   3.456090E-02   3.456090E-02   3.456090E-02   2.727482E-02   2.727482E-02   2.727482E-02   2.727482E-02   2.727482E-02   2.727482E-02   2.727482E-02   2.727482E-02   2.727482E-02   4.599519E-02   4.599519E-02   4.599519E-02   4.599519E-02   4.599519E-02   4.599519E-02   4.599519E-02   4.568857E-02   4.568857E-02   4.568857E-02   4.568857E-02   4.568857E-02   2.553010E-02   2.553010E-02   2.553010E-02   2.553010E-02   3.839798E-02   3.839798E-02   3.839798E-02   4.738541E-02   4.738541E-02   1.870964E-02   1.870964E-02   3.032929E-02   3.032929E-02   5.305783E-02   6.654185E-02   1.443170E-01   1.443170E-01   4.920818E-02   6.239047E-02   3.636912E-02   4.364222E-02   3.364776E-02   7.427269E-02   1.301737E-01   1.674182E-01   3.103808E-01   8.320675E-02   3.741245E-02   3.322209E-02   1.822482E-02   1.381816E-02   7.961594E-02   4.986969E-02   1.121279E-01   7.806750E-02   3.048712E-02   3.809318E-02   1.266339E-02   3.242682E-02   1.378940E-02   2.078689E-02   9.953377E-03   1.616825E-02   1.487203E-02   2.351528E-02   3.789764E-02   9.307745E-02   6.043230E-02   3.609205E-02   2.327586E-02   1.656469E-02   3.152668E-02   1.532185E-02   4.869648E-03   7.035115E-03   1.945677E-02
   5.465288E-03   1.074139E-02   1.152742E-02   2.726414E-02   5.448845E-02   3.892056E-02   4.862294E-02   9.418291E-02   1.069497E-01   9.263309E-02   6.165941E-02   2.097349E-01   6.202981E-02   5.212470E-02   2.382244E-02   2.081744E-02   8.767589E-02   3.458514E-02   6.593033E-02   4.937151E-02   9.302051E-03   2.869411E-02   6.955768E-02   7.687027E-02   1.080933E-01   1.062991E-01   1.208606E-01   2.155581E-01   2.629261E-01   1.100588E-01   1.169243E-01   3.468019E-02   1.300464E-02   1.075322E-02   1.178956E-02   2.366836E-02   2.553125E-02   7.660230E-03   2.846583E-02   4.764574E-02   4.505543E-02   6.543761E-02   3.776091E-02   5.566622E-02   3.784089E-02   2.179099E-02   1.769382E-02   2.218748E-02   8.956988E-03   1.154766E-02   2.839322E-02   2.113335E-02   3.027704E-02   1.792380E-02   1.922064E-02   5.097657E-02   3.473700E-02   7.307649E-02   1.468429E-01   1.175042E-01   5.219428E-02   1.410613E-02   2.845907E-02   3.369181E-02   1.661036E-01   1.528889E-01   4.580371E-02   4.134398E-02   5.769832E-02   2.280959E-02   2.819912E-02   1.153175E-01   3.810870E-02   7.323525E-02   1.762556E-02   4.015892E-02   3.092732E-02   1.185789E-02   3.373947E-02   1.307365E-01   4.559804E-02   4.154490E-02   5.516295E-02   2.122582E-01   3.078369E-01   2.180714E-01   5.995202E-02   8.029258E-02   3.646363E-02   5.068626E-02   5.068626E-02   1.291359E-01   5.865823E-02   5.865823E-02   5.085845E-02   1.451369E-02   1.451369E-02   2.654346E-02   2.654346E-02   2.654346E-02   6.230937E-02   6.230937E-02   6.230937E-02   6.522184E-02   6.522184E-02   6.522184E-02   6.522184E-02   6.522184E-02   3.288723E-02   3.288723E-02   3.288723E-02   3.288723E-02   3.288723E-02   3.425106E-02   3.425106E-02   3.425106E-02   3.425106E-02   3.425106E-02   3.425106E-02   3.425106E-02   3.662251E-02   3.662251E-02   3.662251E-02   3.662251E-02   3.662251E-02   3.662251E-02   3.662251E-02   3.662251E-02   3.662251E-02   3.662251E-02   3.275929E-02   3.275929E-02   3.275929E-02   3.275929E-02   3.275929E-02   3.275929E-02   3.275929E-02   3.275929E-02   3.275929E-02   3.191656E-02   3.191656E-02   3.191656E-02   3.191656E-02   3.191656E-02   3.191656E-02   3.191656E-02   4.138141E-02   4.138141E-02   4.138141E-02   4.138141E-02   4.138141E-02   9.308627E-02   9.308627E-02   9.308627E-02   9.308627E-02   3.924623E-02   3.924623E-02   3.924623E-02   5.540783E-02   5.540783E-02   2.839882E-02   2.839882E-02   6.220397E-02   6.220397E-02   8.727255E-02   1.215778E-01   6.412277E-02   6.412277E-02   4.393968E-02   4.063653E-02   9.337427E-02   6.680153E-02   3.849936E-02   7.288508E-02   1.102125E-01   1.039460E-01   1.487978E-01   7.242906E-02   3.852181E-02   3.690402E-02   3.858050E-02   1.684302E-02   3.986582E-02   8.122106E-02   1.485412E-01   5.489651E-02   9.714187E-02   4.551039E-02   1.808497E-02   3.592600E-02   1.111152E-02   1.140961E-02   1.109222E-02   3.095841E-02   1.333700E-02   1.798187E-02   2.536110E-02   3.075280E-02   3.950496E-02   3.622305E-02   2.148436E-02   2.042361E-02   3.403559E-02   9.751051E-03   4.946021E-03   6.795966E-03   1.881351E-02
   6.478858E-03   9.923415E-03   1.444926E-02   2.228817E-02   3.963111E-02   1.958718E-02   3.830027E-02   6.379580E-02   1.266416E-01   1.477434E-01   4.142099E-02   1.348893E-01   9.801728E-02   1.181331E-01   4.115414E-02   1.458550E-02   3.673508E-02   4.768675E-02   5.122851E-02   2.697232E-02   1.846754E-02   3.084220E-02   7.625076E-02   6.354695E-02   1.482909E-01   5.607073E-02   2.344363E-01   2.249108E-01   3.332514E-01   2.406571E-01   1.040829E-01   2.872126E-02   9.143714E-03   1.126539E-02   1.741453E-02   2.539677E-02   2.832080E-02   8.599604E-03   2.404712E-02   8.645701E-02   1.140959E-01   1.310198E-01   8.607252E-02   4.883080E-02   1.674851E-02   1.352487E-02   2.884328E-02   2.260166E-02   1.245764E-02   8.940194E-03   2.152521E-02   1.609529E-02   2.387720E-02   2.164772E-02   2.701213E-02   1.226021E-01   2.945822E-02   1.024283E-01   1.688711E-01   3.865051E-02   5.358144E-02   1.140117E-02   1.950218E-02   4.500009E-02   8.802289E-02   1.192179E-01   7.066161E-02   1.318996E-01   8.825676E-02   4.123006E-02   2.183859E-02   8.441135E-02   3.664683E-02   2.967649E-02   2.183597E-02   9.895056E-02   4.129043E-02   1.180030E-02   1.225645E-02   3.303889E-02   4.084864E-02   4.409425E-02   7.740545E-02   1.740472E-01   2.242799E-01   2.772892E-01   9.077796E-02   4.509955E-02   5.002080E-02   9.901049E-02   9.901049E-02   8.614821E-02   3.546201E-02   3.546201E-02   3.516722E-02   1.361433E-02   1.361433E-02   1.294005E-02   1.294005E-02   1.294005E-02   2.378142E-02   2.378142E-02   2.378142E-02   9.431707E-02   9.431707E-02   9.431707E-02   9.431707E-02   9.431707E-02   3.615568E-02   3.615568E-02   3.615568E-02   3.615568E-02   3.615568E-02   3.720711E-02   3.720711E-02   3.720711E-02   3.720711E-02   3.720711E-02   3.720711E-02   3.720711E-02   1.368465E-02   1.368465E-02   1.368465E-02   1.368465E-02   1.368465E-02   1.368465E-02   1.368465E-02   1.368465E-02   1.368465E-02   1.368465E-02   2.337096E-02   2.337096E-02   2.337096E-02   2.337096E-02   2.337096E-02   2.337096E-02   2.337096E-02   2.337096E-02   2.337096E-02   3.317188E-02   3.317188E-02   3.317188E-02   3.317188E-02   3.317188E-02   3.317188E-02   3.317188E-02   4.177609E-02   4.177609E-02   4.177609E-02   4.177609E-02   4.177609E-02   6.643416E-02   6.643416E-02   6.643416E-02   6.643416E-02   4.908725E-02   4.908725E-02   4.908725E-02   7.612732E-02   7.612732E-02   4.758773E-02   4.758773E-02   8.286750E-02   8.286750E-02   1.207818E-01   7.980148E-02   7.515426E-02   7.515426E-02   6.416615E-02   3.824653E-02   1.203163E-01   1.397812E-01   5.334586E-02   7.924569E-02   6.012585E-02   1.774801E-01   1.107781E-01   1.331066E-01   1.874244E-02   3.368377E-02   3.179351E-02   1.608856E-02   6.426883E-02   9.173921E-02   1.027050E-01   5.771109E-02   1.427139E-01   1.010805E-01   4.322884E-02   4.347927E-02   1.209816E-02   2.126572E-02   2.666090E-02   2.331395E-02   1.870480E-02   4.185453E-02   2.239970E-02   2.404372E-02   2.715166E-02   4.013497E-02   2.958180E-02   1.349085E-02   1.403570E-02   6.459673E-03   4.648968E-03   6.954448E-03   2.395390E-02