# LPF package for  MODFLOW-2005, generated by Flopy.
        53    -1E+30         0  
         1
         0
   0.000000E+00
         0
         0
INTERNAL               1 (207E15.6) -1 #hk layer 1                    
   1.300053E+02   2.209654E+02   5.652228E+02   2.097329E+02   5.565849E+01   4.945855E+01   3.708574E+01   7.994773E+01   2.973736E+01   4.594864E+01   3.506530E+01   3.159875E+01   2.947886E+01   9.994562E+00   9.047582E+00   2.506518E+01   5.091492E+01   1.478887E+02   1.760552E+02   8.729986E+01   4.893230E+01   3.251645E+01   1.483924E+01   6.150363E+00   1.044878E+01   2.496827E+01   3.032409E+01   3.273326E+02   1.176154E+02   6.948642E+01   1.026476E+02   7.532877E+01   1.978512E+02   1.213337E+02   1.825392E+01   2.025683E+01   1.896388E+01   5.153101E+01   8.746747E+01   5.885422E+01   8.487174E+01   4.868832E+01   5.921001E+01   4.173292E+01   3.774154E+01   2.352548E+01   4.547971E+01   2.938718E+01   5.415844E+01   5.263905E+01   1.156934E+02   1.472467E+02   7.562270E+01   6.001628E+01   7.991407E+01   9.007567E+01   6.738946E+01   3.102607E+01   4.238869E+01   2.251600E+01   2.545229E+01   4.967304E+01   7.505027E+01   6.258975E+01   5.883154E+01   4.836845E+01   1.301454E+02   1.019360E+02   1.647519E+02   1.707875E+02   1.805875E+02   4.823349E+01   7.061028E+01   1.568573E+02   3.102980E+02   6.939306E+02   1.208828E+03   9.089813E+02   3.840487E+02   2.650167E+02   1.540062E+02   1.015431E+02   1.100570E+02   1.459146E+02   1.290930E+02   5.078115E+01   4.987760E+01   2.315838E+01   3.624974E+01   3.035473E+01   3.035473E+01   1.484873E+01   3.677666E+01   3.677666E+01   3.551263E+01   1.927464E+01   1.927464E+01   2.370425E+01   2.370425E+01   2.370425E+01   1.739299E+01   1.739299E+01   1.739299E+01   3.721571E+01   3.721571E+01   3.721571E+01   3.721571E+01   3.721571E+01   3.519753E+01   3.519753E+01   3.519753E+01   3.519753E+01   3.519753E+01   2.136648E+01   2.136648E+01   2.136648E+01   2.136648E+01   2.136648E+01   2.136648E+01   2.136648E+01   1.740085E+01   1.740085E+01   1.740085E+01   1.740085E+01   1.740085E+01   1.740085E+01   1.740085E+01   1.740085E+01   1.740085E+01   1.740085E+01   1.868761E+01   1.868761E+01   1.868761E+01   1.868761E+01   1.868761E+01   1.868761E+01   1.868761E+01   1.868761E+01   1.868761E+01   5.539026E+00   5.539026E+00   5.539026E+00   5.539026E+00   5.539026E+00   5.539026E+00   5.539026E+00   2.274019E+01   2.274019E+01   2.274019E+01   2.274019E+01   2.274019E+01   6.259454E+01   6.259454E+01   6.259454E+01   6.259454E+01   7.755370E+01   7.755370E+01   7.755370E+01   4.106651E+01   4.106651E+01   6.054752E+01   6.054752E+01   8.384500E+01   8.384500E+01   3.715886E+01   1.524946E+01   1.214184E+01   1.214184E+01   3.021995E+01   3.017606E+01   8.612207E+01   6.030616E+01   6.694511E+01   1.909230E+02   6.399911E+01   8.458378E+01   2.539458E+02   2.001119E+02   1.987762E+02   1.018976E+02   3.222893E+01   2.390313E+01   1.771516E+01   5.225625E+01   7.866704E+01   7.079999E+01   7.579108E+01   5.351952E+01   1.127759E+02   5.314957E+01   2.942442E+01   2.167765E+01   4.364672E+01   1.270984E+02   1.398031E+02   1.137245E+02   4.236248E+01   3.067291E+01   2.987142E+01   6.957298E+01   1.018272E+02   2.139154E+02   1.024021E+02   7.591354E+01   7.215686E+01   4.736983E+01   6.747134E+01
   1.671580E+02   5.424983E+02   6.127253E+02   3.934966E+02   9.930318E+01   9.279514E+01   3.788776E+01   4.121677E+01   2.956268E+01   3.789269E+01   4.025970E+01   2.944509E+01   3.576948E+01   1.487235E+01   1.722905E+01   3.178214E+01   3.374364E+01   1.325585E+02   9.548693E+01   1.295150E+02   1.353647E+02   4.225914E+01   2.230918E+01   1.242534E+01   1.065452E+01   2.263232E+01   2.396368E+01   1.440320E+02   3.239428E+01   5.479473E+01   9.969321E+01   9.429460E+01   1.743452E+02   1.065933E+02   2.657368E+01   1.470303E+01   1.486132E+01   9.659580E+01   1.722000E+02   1.153880E+02   9.095851E+01   4.998662E+01   3.598961E+01   2.826784E+01   4.436569E+01   3.444467E+01   4.924839E+01   1.206173E+01   2.921982E+01   4.349186E+01   5.442148E+01   5.029849E+01   4.975526E+01   1.535730E+02   1.170153E+02   7.036188E+01   6.158459E+01   5.999286E+01   5.638916E+01   2.333284E+01   3.004809E+01   2.662940E+01   4.077149E+01   7.396225E+01   4.047599E+01   2.636725E+01   2.438801E+02   1.321974E+02   1.917458E+02   1.312060E+02   1.314641E+02   9.210165E+01   2.082747E+02   3.720130E+02   4.513279E+02   1.048141E+03   9.501517E+02   6.883720E+02   4.099689E+02   2.664236E+02   9.008269E+01   9.222254E+01   1.114043E+02   2.449576E+02   5.901867E+01   6.250740E+01   9.152304E+01   4.096010E+01   2.665247E+01   4.416830E+01   4.416830E+01   2.400862E+01   4.157558E+01   4.157558E+01   3.503936E+01   1.346246E+01   1.346246E+01   2.363254E+01   2.363254E+01   2.363254E+01   3.734795E+01   3.734795E+01   3.734795E+01   7.183329E+01   7.183329E+01   7.183329E+01   7.183329E+01   7.183329E+01   4.212923E+01   4.212923E+01   4.212923E+01   4.212923E+01   4.212923E+01   1.499368E+01   1.499368E+01   1.499368E+01   1.499368E+01   1.499368E+01   1.499368E+01   1.499368E+01   1.940057E+01   1.940057E+01   1.940057E+01   1.940057E+01   1.940057E+01   1.940057E+01   1.940057E+01   1.940057E+01   1.940057E+01   1.940057E+01   3.366093E+01   3.366093E+01   3.366093E+01   3.366093E+01   3.366093E+01   3.366093E+01   3.366093E+01   3.366093E+01   3.366093E+01   2.322537E+01   2.322537E+01   2.322537E+01   2.322537E+01   2.322537E+01   2.322537E+01   2.322537E+01   3.455683E+01   3.455683E+01   3.455683E+01   3.455683E+01   3.455683E+01   8.334643E+01   8.334643E+01   8.334643E+01   8.334643E+01   8.603221E+01   8.603221E+01   8.603221E+01   3.743815E+01   3.743815E+01   3.401154E+01   3.401154E+01   1.064750E+02   1.064750E+02   7.717298E+01   4.158138E+01   2.334619E+01   2.334619E+01   1.795374E+01   3.413541E+01   8.223186E+01   4.282840E+01   5.511958E+01   2.178022E+02   4.517879E+01   1.037888E+02   1.880124E+02   1.524982E+02   2.843685E+02   5.425357E+01   5.230050E+01   1.761881E+01   2.491831E+01   5.912888E+01   1.169711E+02   5.955870E+01   8.408556E+01   5.510495E+01   6.621019E+01   9.193960E+01   6.335122E+01   2.597685E+01   4.788997E+01   1.900466E+02   1.039731E+02   7.612397E+01   7.355557E+01   4.727036E+01   3.374876E+01   1.216553E+02   1.751957E+02   2.884588E+02   5.004877E+01   7.533817E+01   6.084459E+01   5.296134E+01   7.023927E+01
   1.723342E+02   1.969162E+02   1.051122E+03   3.519485E+02   1.578669E+02   7.092339E+01   8.419270E+01   3.734355E+01   1.553478E+01   1.589801E+01   3.773523E+01   4.573501E+01   3.715836E+01   1.536623E+01   2.728265E+01   4.271561E+01   4.235855E+01   1.406469E+02   1.565631E+02   1.671476E+02   1.465729E+02   4.926612E+01   1.364242E+01   1.173299E+01   1.009575E+01   1.789034E+01   5.429798E+01   8.416227E+01   3.668358E+01   7.052013E+01   5.201568E+01   7.685144E+01   1.368467E+02   1.086050E+02   3.135821E+01   1.538894E+01   4.004124E+01   1.094538E+02   1.166804E+02   1.306207E+02   1.650257E+02   8.080079E+01   4.727097E+01   2.465411E+01   3.539250E+01   2.704438E+01   3.802867E+01   1.199663E+01   3.443617E+01   3.050561E+01   3.988324E+01   8.461128E+01   7.601983E+01   1.516829E+02   7.872878E+01   1.610544E+02   9.062637E+01   5.163457E+01   4.962530E+01   2.473882E+01   3.702212E+01   4.324246E+01   3.899595E+01   2.208222E+01   8.709041E+01   4.591042E+01   1.837832E+02   1.205625E+02   1.377112E+02   1.606221E+02   9.419176E+01   1.355503E+02   3.259769E+02   4.035389E+02   5.022055E+02   1.307319E+03   6.260632E+02   3.935573E+02   3.993971E+02   3.913690E+02   1.318412E+02   1.913369E+02   1.534794E+02   2.135776E+02   3.545368E+01   6.865993E+01   1.997424E+02   9.940868E+01   4.667302E+01   2.778527E+01   2.778527E+01   3.516177E+01   5.117656E+01   5.117656E+01   2.452056E+01   1.186129E+01   1.186129E+01   1.263795E+01   1.263795E+01   1.263795E+01   3.591207E+01   3.591207E+01   3.591207E+01   2.522385E+01   2.522385E+01   2.522385E+01   2.522385E+01   2.522385E+01   2.947871E+01   2.947871E+01   2.947871E+01   2.947871E+01   2.947871E+01   1.643614E+01   1.643614E+01   1.643614E+01   1.643614E+01   1.643614E+01   1.643614E+01   1.643614E+01   1.539176E+01   1.539176E+01   1.539176E+01   1.539176E+01   1.539176E+01   1.539176E+01   1.539176E+01   1.539176E+01   1.539176E+01   1.539176E+01   1.797322E+01   1.797322E+01   1.797322E+01   1.797322E+01   1.797322E+01   1.797322E+01   1.797322E+01   1.797322E+01   1.797322E+01   2.697972E+01   2.697972E+01   2.697972E+01   2.697972E+01   2.697972E+01   2.697972E+01   2.697972E+01   2.533268E+01   2.533268E+01   2.533268E+01   2.533268E+01   2.533268E+01   9.983602E+01   9.983602E+01   9.983602E+01   9.983602E+01   1.277056E+02   1.277056E+02   1.277056E+02   4.448744E+01   4.448744E+01   4.206055E+01   4.206055E+01   1.124570E+02   1.124570E+02   9.678904E+01   4.527800E+01   1.262406E+01   1.262406E+01   1.142915E+01   5.050885E+01   9.190078E+01   1.146482E+02   7.572153E+01   2.009041E+02   4.699760E+01   6.151847E+01   1.261972E+02   1.259148E+02   2.025295E+02   4.965067E+01   5.075135E+01   2.034283E+01   6.957400E+01   3.736476E+01   1.312464E+02   4.222788E+01   1.194200E+02   7.374927E+01   7.599320E+01   4.214503E+01   5.661250E+01   4.689498E+01   4.367981E+01   1.637205E+02   1.497430E+02   6.641968E+01   1.425039E+02   4.705497E+01   9.240376E+01   1.855534E+02   2.352716E+02   1.534992E+02   1.011884E+02   7.751887E+01   3.900732E+01   3.564913E+01   3.557466E+01
   7.093237E+01   3.156673E+02   7.961528E+02   6.911880E+02   1.835529E+02   6.854721E+01   9.955871E+01   4.280153E+01   3.607464E+01   2.443169E+01   5.030197E+01   1.258170E+02   6.411317E+01   1.598627E+01   3.741791E+01   3.346095E+01   1.208273E+02   1.426448E+02   1.716070E+02   1.375287E+02   1.075014E+02   4.208578E+01   4.520251E+01   1.851682E+01   2.759422E+01   2.518644E+01   4.984968E+01   6.839942E+01   3.396696E+01   6.555794E+01   6.101164E+01   3.761470E+01   9.798249E+01   7.134946E+01   2.324923E+01   2.012574E+01   5.506467E+01   6.678601E+01   9.460039E+01   8.684732E+01   1.330888E+02   4.834526E+01   3.499342E+01   1.388023E+01   1.463634E+01   2.543727E+01   1.015615E+01   1.682908E+01   2.259315E+01   1.199918E+01   5.045266E+01   8.667994E+01   2.410623E+02   1.400346E+02   8.634617E+01   8.555567E+01   5.903811E+01   8.261781E+01   3.766076E+01   1.381334E+01   1.851531E+01   2.735855E+01   2.212117E+01   6.066969E+01   5.131053E+01   7.950780E+01   1.915166E+02   1.733019E+02   1.881109E+02   2.343927E+02   7.824551E+01   2.687925E+02   4.319823E+02   8.285124E+02   8.431934E+02   1.100352E+03   1.080534E+03   5.692581E+02   2.408684E+02   3.013292E+02   1.301113E+02   1.808920E+02   2.592194E+02   1.407300E+02   5.985645E+01   6.117216E+01   1.551921E+02   2.356042E+02   9.769329E+01   5.188643E+01   5.188643E+01   2.628347E+01   4.704651E+01   4.704651E+01   1.944026E+01   2.485372E+01   2.485372E+01   3.301742E+01   3.301742E+01   3.301742E+01   4.653440E+01   4.653440E+01   4.653440E+01   3.666906E+01   3.666906E+01   3.666906E+01   3.666906E+01   3.666906E+01   3.056176E+01   3.056176E+01   3.056176E+01   3.056176E+01   3.056176E+01   4.377517E+01   4.377517E+01   4.377517E+01   4.377517E+01   4.377517E+01   4.377517E+01   4.377517E+01   3.203785E+01   3.203785E+01   3.203785E+01   3.203785E+01   3.203785E+01   3.203785E+01   3.203785E+01   3.203785E+01   3.203785E+01   3.203785E+01   1.840032E+01   1.840032E+01   1.840032E+01   1.840032E+01   1.840032E+01   1.840032E+01   1.840032E+01   1.840032E+01   1.840032E+01   1.970514E+01   1.970514E+01   1.970514E+01   1.970514E+01   1.970514E+01   1.970514E+01   1.970514E+01   4.506742E+01   4.506742E+01   4.506742E+01   4.506742E+01   4.506742E+01   4.706370E+01   4.706370E+01   4.706370E+01   4.706370E+01   7.437862E+01   7.437862E+01   7.437862E+01   2.860947E+01   2.860947E+01   6.408500E+01   6.408500E+01   1.309146E+02   1.309146E+02   5.245547E+01   7.087241E+01   2.010032E+01   2.010032E+01   3.089468E+01   7.763864E+01   1.469530E+02   2.216617E+02   8.699043E+01   2.050033E+02   5.847584E+01   6.450100E+01   1.453172E+02   8.943965E+01   1.127746E+02   7.733210E+01   5.168222E+01   2.749628E+01   4.291427E+01   5.556261E+01   9.617971E+01   7.286279E+01   7.259241E+01   4.788804E+01   6.410886E+01   2.658402E+01   4.254595E+01   3.447331E+01   3.616925E+01   6.181414E+01   1.067634E+02   1.008182E+02   1.829592E+02   4.710029E+01   4.772587E+01   1.183374E+02   3.105583E+02   1.783358E+02   5.722485E+01   1.060959E+02   4.950484E+01   2.342050E+01   1.208854E+01
   6.323415E+01   1.943144E+02   6.995153E+02   2.294590E+02   1.392810E+02   1.704894E+02   1.085038E+02   1.807078E+01   1.504772E+01   3.172499E+01   4.124929E+01   9.989609E+01   7.787334E+01   3.209744E+01   3.434708E+01   5.547242E+01   1.555915E+02   1.349053E+02   1.740861E+02   1.820292E+02   5.910910E+01   6.696670E+01   2.968589E+01   1.354975E+01   3.949728E+01   2.043607E+01   3.321521E+01   5.983199E+01   4.804925E+01   6.200807E+01   4.198984E+01   2.261127E+01   7.251968E+01   1.606927E+02   2.655784E+01   2.179026E+01   1.406640E+01   5.916009E+01   2.099930E+02   1.712361E+02   4.477430E+01   5.831959E+01   1.902490E+01   8.711106E+00   8.662329E+00   1.003193E+01   7.434420E+00   1.237567E+01   1.200841E+01   1.646435E+01   9.213851E+01   1.195069E+02   2.390556E+02   2.046973E+02   1.403466E+02   7.543187E+01   7.542410E+01   3.175885E+01   4.217384E+01   2.682223E+01   3.430212E+01   3.535783E+01   2.524485E+01   5.871582E+01   9.859023E+01   7.038727E+01   8.270504E+01   1.011095E+02   5.923894E+01   2.443003E+02   1.262450E+02   1.496516E+02   3.618033E+02   5.505778E+02   4.519442E+02   4.435960E+02   4.014094E+02   4.671873E+02   4.240163E+02   2.564959E+02   2.202758E+02   1.968529E+02   1.167060E+02   1.632876E+02   3.189852E+01   6.055948E+01   1.813815E+02   3.682186E+02   2.234802E+02   2.914985E+01   2.914985E+01   1.557727E+01   3.201464E+01   3.201464E+01   1.841426E+01   1.999569E+01   1.999569E+01   3.845243E+01   3.845243E+01   3.845243E+01   3.229207E+01   3.229207E+01   3.229207E+01   5.091018E+01   5.091018E+01   5.091018E+01   5.091018E+01   5.091018E+01   5.456833E+01   5.456833E+01   5.456833E+01   5.456833E+01   5.456833E+01   4.030108E+01   4.030108E+01   4.030108E+01   4.030108E+01   4.030108E+01   4.030108E+01   4.030108E+01   3.831297E+01   3.831297E+01   3.831297E+01   3.831297E+01   3.831297E+01   3.831297E+01   3.831297E+01   3.831297E+01   3.831297E+01   3.831297E+01   1.594481E+01   1.594481E+01   1.594481E+01   1.594481E+01   1.594481E+01   1.594481E+01   1.594481E+01   1.594481E+01   1.594481E+01   1.812213E+01   1.812213E+01   1.812213E+01   1.812213E+01   1.812213E+01   1.812213E+01   1.812213E+01   3.423758E+01   3.423758E+01   3.423758E+01   3.423758E+01   3.423758E+01   3.321258E+01   3.321258E+01   3.321258E+01   3.321258E+01   8.204744E+01   8.204744E+01   8.204744E+01   5.046435E+01   5.046435E+01   4.538098E+01   4.538098E+01   1.136965E+02   1.136965E+02   3.997280E+01   3.832196E+01   3.271891E+01   3.271891E+01   5.834856E+01   4.023984E+01   1.968136E+02   1.755472E+02   1.259653E+02   1.158680E+02   8.386353E+01   7.849091E+01   3.017423E+02   7.861057E+01   1.066638E+02   5.037676E+01   1.543268E+01   2.199360E+01   3.174858E+01   7.762430E+01   2.228187E+02   7.919527E+01   1.191641E+02   6.663391E+01   4.015994E+01   3.314563E+01   6.410393E+01   2.348805E+01   4.731785E+01   1.215411E+02   1.080434E+02   1.263317E+02   1.870264E+02   1.301783E+02   6.686323E+01   5.584486E+01   1.260626E+02   1.622062E+02   1.146004E+02   2.524793E+02   6.836073E+01   3.053375E+01   1.923422E+01
   1.448166E+02   1.495566E+02   5.014623E+02   1.857142E+02   2.786131E+02   1.495629E+02   1.213833E+02   6.677955E+01   3.768066E+01   5.440707E+01   7.381754E+01   1.187609E+02   1.304444E+02   1.972794E+02   7.655559E+01   8.412705E+01   1.089012E+02   2.776681E+02   1.358677E+02   1.288998E+02   5.868933E+01   1.261106E+02   4.190712E+01   1.005080E+01   1.871039E+01   2.188763E+01   2.330282E+01   5.028387E+01   6.473661E+01   8.391499E+01   5.371110E+01   3.497806E+01   1.027545E+02   6.424343E+01   4.057264E+01   4.373767E+01   2.532254E+01   4.286142E+01   1.283627E+02   5.726968E+01   2.845414E+01   8.933562E+01   2.177131E+01   1.066117E+01   1.104664E+01   1.849126E+01   1.287651E+01   1.249649E+01   1.301565E+01   2.966683E+01   1.320530E+02   1.692612E+02   8.702801E+01   3.264383E+02   1.669721E+02   1.833153E+02   5.862585E+01   8.020554E+01   4.050011E+01   4.911920E+01   5.563146E+01   7.345473E+01   5.510934E+01   1.573699E+02   9.939398E+01   6.708421E+01   9.936458E+01   7.176871E+01   1.048449E+02   1.276573E+02   9.331515E+01   7.331183E+01   2.692676E+02   5.739982E+02   4.302914E+02   2.702830E+02   3.869481E+02   1.974671E+02   4.130695E+02   3.570447E+02   2.382258E+02   7.256776E+01   8.756937E+01   1.005791E+02   4.813798E+01   3.593492E+01   1.718394E+02   1.770894E+02   2.301700E+02   2.854077E+01   2.854077E+01   2.001014E+01   1.580544E+01   1.580544E+01   1.433656E+01   2.645729E+01   2.645729E+01   3.847851E+01   3.847851E+01   3.847851E+01   3.652673E+01   3.652673E+01   3.652673E+01   2.705302E+01   2.705302E+01   2.705302E+01   2.705302E+01   2.705302E+01   7.120312E+01   7.120312E+01   7.120312E+01   7.120312E+01   7.120312E+01   1.376425E+02   1.376425E+02   1.376425E+02   1.376425E+02   1.376425E+02   1.376425E+02   1.376425E+02   1.108086E+02   1.108086E+02   1.108086E+02   1.108086E+02   1.108086E+02   1.108086E+02   1.108086E+02   1.108086E+02   1.108086E+02   1.108086E+02   7.030195E+01   7.030195E+01   7.030195E+01   7.030195E+01   7.030195E+01   7.030195E+01   7.030195E+01   7.030195E+01   7.030195E+01   1.850266E+01   1.850266E+01   1.850266E+01   1.850266E+01   1.850266E+01   1.850266E+01   1.850266E+01   1.544031E+01   1.544031E+01   1.544031E+01   1.544031E+01   1.544031E+01   3.469400E+01   3.469400E+01   3.469400E+01   3.469400E+01   4.309205E+01   4.309205E+01   4.309205E+01   6.063069E+01   6.063069E+01   9.085595E+01   9.085595E+01   5.002758E+01   5.002758E+01   6.154119E+01   4.572183E+01   4.194519E+01   4.194519E+01   5.437008E+01   9.009274E+01   1.744727E+02   1.368264E+02   7.676610E+01   1.582576E+02   5.428051E+01   1.168060E+02   1.446871E+02   7.758047E+01   9.080069E+01   3.128019E+01   1.976206E+01   1.954578E+01   4.641694E+01   1.894743E+02   2.569590E+02   1.353990E+02   1.941604E+02   9.986446E+01   6.124384E+01   5.836481E+01   3.481841E+01   4.645418E+01   8.576274E+01   9.864162E+01   1.108968E+02   5.374230E+01   1.262629E+02   3.583077E+01   3.355620E+01   8.199971E+01   1.626386E+02   1.097620E+02   1.408333E+02   2.240555E+02   4.864388E+01   3.151355E+01   5.459367E+01
   1.128109E+02   2.222474E+02   5.484775E+02   2.354802E+02   2.626399E+02   2.301587E+02   1.207814E+02   5.472591E+01   3.370590E+01   8.416743E+01   5.256494E+01   1.789516E+02   1.223348E+02   3.155753E+02   1.643643E+02   9.156509E+01   1.311066E+02   2.855183E+02   1.325226E+02   9.139853E+01   1.192890E+02   7.322476E+01   1.817857E+01   4.455364E+00   1.832114E+01   2.698887E+01   2.521906E+01   3.920807E+01   1.165545E+02   7.116370E+01   1.407563E+02   6.301334E+01   5.901219E+01   3.164039E+01   5.166540E+01   4.871944E+01   4.738736E+01   5.395678E+01   3.220315E+01   3.675253E+01   1.689273E+01   4.716020E+01   2.834576E+01   1.575302E+01   1.299630E+01   1.002887E+01   1.916191E+01   2.293701E+01   1.361345E+01   2.289894E+01   5.574544E+01   9.783160E+01   1.709494E+02   2.171490E+02   1.062461E+02   7.585400E+01   4.869029E+01   6.443372E+01   7.842191E+01   1.152156E+02   6.060302E+01   1.617816E+02   1.498117E+02   5.665323E+02   9.503006E+01   6.406410E+01   7.128452E+01   4.007214E+01   1.271798E+02   1.536422E+02   1.709695E+02   1.238221E+02   1.411345E+02   4.466558E+02   4.441881E+02   7.147560E+02   2.365096E+02   1.532921E+02   2.331473E+02   5.310155E+02   1.861933E+02   1.389024E+02   1.319660E+02   9.949285E+01   5.375945E+01   5.790291E+01   1.145737E+02   1.386049E+02   1.565518E+02   7.297353E+01   7.297353E+01   7.635656E+01   1.304576E+01   1.304576E+01   2.522943E+01   5.082473E+01   5.082473E+01   6.283013E+01   6.283013E+01   6.283013E+01   1.002498E+01   1.002498E+01   1.002498E+01   1.485228E+01   1.485228E+01   1.485228E+01   1.485228E+01   1.485228E+01   1.206396E+02   1.206396E+02   1.206396E+02   1.206396E+02   1.206396E+02   1.150479E+02   1.150479E+02   1.150479E+02   1.150479E+02   1.150479E+02   1.150479E+02   1.150479E+02   8.623738E+01   8.623738E+01   8.623738E+01   8.623738E+01   8.623738E+01   8.623738E+01   8.623738E+01   8.623738E+01   8.623738E+01   8.623738E+01   5.283732E+01   5.283732E+01   5.283732E+01   5.283732E+01   5.283732E+01   5.283732E+01   5.283732E+01   5.283732E+01   5.283732E+01   1.491748E+01   1.491748E+01   1.491748E+01   1.491748E+01   1.491748E+01   1.491748E+01   1.491748E+01   2.322677E+01   2.322677E+01   2.322677E+01   2.322677E+01   2.322677E+01   2.756924E+01   2.756924E+01   2.756924E+01   2.756924E+01   2.899776E+01   2.899776E+01   2.899776E+01   7.307114E+01   7.307114E+01   4.785846E+01   4.785846E+01   3.239242E+01   3.239242E+01   3.787406E+01   3.725504E+01   3.090915E+01   3.090915E+01   5.174955E+01   1.147496E+02   1.125444E+02   1.639111E+02   1.210812E+02   7.540678E+01   3.553207E+01   7.009754E+01   1.762889E+02   1.003158E+02   6.934148E+01   2.125735E+01   1.431410E+01   2.443143E+01   5.786135E+01   3.085175E+02   1.853952E+02   2.691671E+02   3.612961E+02   1.222305E+02   3.535156E+01   4.418387E+01   4.483704E+01   4.018502E+01   9.326469E+01   8.381705E+01   1.731311E+02   4.027490E+01   3.099069E+01   2.605875E+01   2.388021E+01   3.350666E+01   8.344867E+01   1.162062E+02   2.334367E+02   1.091011E+02   5.741542E+01   6.745666E+01   8.579648E+01
   1.938633E+02   1.875294E+02   9.312544E+02   2.935573E+02   6.453765E+02   5.097772E+02   6.719120E+01   4.587166E+01   3.052071E+01   5.893906E+01   5.373009E+01   1.875390E+02   1.342591E+02   1.815932E+02   9.259806E+01   4.878682E+01   1.457407E+02   4.526745E+02   1.877062E+02   1.264103E+02   2.228436E+02   3.237424E+01   1.571149E+01   5.096084E+00   8.580246E+00   2.550371E+01   1.962111E+01   7.658660E+01   1.212540E+02   9.890736E+01   9.097984E+01   4.838057E+01   2.667463E+01   2.555190E+01   4.162586E+01   1.159781E+02   3.613050E+01   1.121194E+01   3.475882E+01   1.603535E+01   1.435421E+01   2.920912E+01   3.065128E+01   2.112969E+01   6.447348E+00   1.192043E+01   1.458913E+01   2.035356E+01   2.850852E+01   5.534509E+01   5.179259E+01   3.233099E+01   1.475988E+02   2.043262E+02   1.259601E+02   5.932753E+01   2.758554E+01   4.472287E+01   4.580584E+01   1.384008E+02   1.248183E+02   9.029510E+01   8.353346E+01   3.496817E+02   7.619258E+01   9.142130E+01   1.008900E+02   8.626360E+01   2.041201E+02   1.246902E+02   4.825648E+02   4.073889E+02   1.931430E+02   4.485024E+02   5.504484E+02   8.011849E+02   1.619351E+02   1.377591E+02   1.596543E+02   2.274022E+02   2.221067E+02   1.386385E+02   1.280002E+02   9.014989E+01   7.329600E+01   3.838681E+01   9.490565E+01   1.407808E+02   2.402051E+02   2.071069E+02   2.071069E+02   1.063663E+02   3.143743E+01   3.143743E+01   2.092194E+01   5.662508E+01   5.662508E+01   4.870530E+01   4.870530E+01   4.870530E+01   1.169759E+01   1.169759E+01   1.169759E+01   2.704493E+01   2.704493E+01   2.704493E+01   2.704493E+01   2.704493E+01   1.210904E+02   1.210904E+02   1.210904E+02   1.210904E+02   1.210904E+02   1.288973E+02   1.288973E+02   1.288973E+02   1.288973E+02   1.288973E+02   1.288973E+02   1.288973E+02   2.166326E+02   2.166326E+02   2.166326E+02   2.166326E+02   2.166326E+02   2.166326E+02   2.166326E+02   2.166326E+02   2.166326E+02   2.166326E+02   2.235738E+01   2.235738E+01   2.235738E+01   2.235738E+01   2.235738E+01   2.235738E+01   2.235738E+01   2.235738E+01   2.235738E+01   1.938636E+01   1.938636E+01   1.938636E+01   1.938636E+01   1.938636E+01   1.938636E+01   1.938636E+01   1.209401E+01   1.209401E+01   1.209401E+01   1.209401E+01   1.209401E+01   2.252370E+01   2.252370E+01   2.252370E+01   2.252370E+01   3.187068E+01   3.187068E+01   3.187068E+01   5.394880E+01   5.394880E+01   2.380493E+01   2.380493E+01   3.350747E+01   3.350747E+01   4.462580E+01   3.956108E+01   3.122791E+01   3.122791E+01   3.183069E+01   4.731078E+01   6.789123E+01   2.924068E+02   6.447204E+01   2.767921E+01   5.404359E+01   1.349880E+02   1.179177E+02   2.001217E+02   9.036115E+01   4.416520E+01   1.052624E+01   1.066223E+01   2.958375E+01   2.753754E+02   4.151045E+02   2.437133E+02   1.755342E+02   1.537734E+02   2.708219E+01   3.393866E+01   2.737120E+01   2.882999E+01   9.058028E+01   1.276772E+02   2.098748E+02   5.550879E+01   3.334663E+01   2.085295E+01   1.523200E+01   2.345584E+01   7.529626E+01   1.117357E+02   1.509554E+02   5.524311E+01   4.243991E+01   6.758830E+01   7.850848E+01
   1.384404E+02   3.337696E+02   6.631872E+02   9.641456E+02   8.005054E+02   3.457291E+02   1.502689E+02   6.535316E+01   4.295139E+01   6.898469E+01   5.502617E+01   2.286372E+02   2.092034E+02   1.862870E+02   6.462571E+01   5.550603E+01   1.731079E+02   3.448971E+02   1.216478E+02   1.117639E+02   1.762678E+02   4.130231E+01   1.385375E+01   5.475195E+00   9.345185E+00   1.209363E+01   3.999133E+01   9.950108E+01   5.995088E+01   1.738530E+02   9.156145E+01   5.542423E+01   3.860857E+01   1.169900E+01   4.401955E+01   1.000592E+02   2.642909E+01   1.064312E+01   2.134595E+01   1.422270E+01   2.779759E+01   1.858234E+01   1.393789E+01   2.096652E+01   2.277450E+01   2.807681E+01   1.858176E+01   1.662060E+01   5.616809E+01   3.189107E+01   2.296900E+01   3.813382E+01   1.080255E+02   2.357787E+02   5.203797E+01   7.809414E+01   2.719208E+01   2.687972E+01   3.943335E+01   6.448402E+01   5.977703E+01   1.569685E+02   1.375095E+02   2.999425E+02   3.260567E+01   1.881728E+02   5.436817E+01   1.314881E+02   2.106670E+02   4.299757E+01   3.257093E+02   3.166596E+02   1.962409E+02   4.961382E+02   4.602134E+02   5.134199E+02   1.231826E+02   1.748477E+02   2.103301E+02   3.513412E+02   1.620830E+02   2.029474E+02   1.238514E+02   1.676347E+02   1.294904E+02   7.184315E+01   1.772151E+02   1.141762E+02   2.112803E+02   1.322963E+02   1.322963E+02   1.692842E+02   6.252877E+01   6.252877E+01   7.676150E+01   7.134925E+01   7.134925E+01   7.443756E+01   7.443756E+01   7.443756E+01   1.575223E+01   1.575223E+01   1.575223E+01   5.415492E+01   5.415492E+01   5.415492E+01   5.415492E+01   5.415492E+01   8.162188E+01   8.162188E+01   8.162188E+01   8.162188E+01   8.162188E+01   1.512990E+02   1.512990E+02   1.512990E+02   1.512990E+02   1.512990E+02   1.512990E+02   1.512990E+02   1.325805E+02   1.325805E+02   1.325805E+02   1.325805E+02   1.325805E+02   1.325805E+02   1.325805E+02   1.325805E+02   1.325805E+02   1.325805E+02   2.658166E+01   2.658166E+01   2.658166E+01   2.658166E+01   2.658166E+01   2.658166E+01   2.658166E+01   2.658166E+01   2.658166E+01   1.416769E+01   1.416769E+01   1.416769E+01   1.416769E+01   1.416769E+01   1.416769E+01   1.416769E+01   1.834307E+01   1.834307E+01   1.834307E+01   1.834307E+01   1.834307E+01   3.116757E+01   3.116757E+01   3.116757E+01   3.116757E+01   4.731235E+01   4.731235E+01   4.731235E+01   1.997410E+01   1.997410E+01   1.709295E+01   1.709295E+01   2.185044E+01   2.185044E+01   5.693402E+01   6.042766E+01   4.489429E+01   4.489429E+01   2.917170E+01   7.340261E+01   4.627863E+01   2.675317E+02   4.774838E+01   2.639058E+01   4.398439E+01   2.394240E+02   1.365597E+02   2.906676E+02   5.961700E+01   7.506256E+01   5.818020E+01   3.516093E+01   4.672866E+01   2.618833E+02   3.849565E+02   4.294380E+02   3.262934E+02   1.288153E+02   5.077578E+01   5.962666E+01   1.926643E+01   2.105367E+01   3.455532E+01   1.146665E+02   1.166294E+02   4.179803E+01   1.550276E+01   1.578798E+01   8.931428E+00   1.770385E+01   3.281598E+01   1.927428E+02   9.860105E+01   7.548585E+01   4.571129E+01   5.769109E+01   5.733809E+01