# LPF package for  MODFLOW-2005, generated by Flopy.
        53    -1E+30         0  
         1
         0
   0.000000E+00
         0
         0
INTERNAL               1 (207E15.6) -1 #hk layer 1                    
   7.639455E+01   2.256600E+02   1.707369E+02   8.865124E+01   4.433253E+01   9.976014E+01   2.596294E+02   9.108350E+01   2.118976E+01   8.608778E+01   5.138956E+01   4.378358E+02   4.665539E+02   2.379663E+02   2.819469E+02   6.263329E+02   1.642182E+02   1.403560E+02   1.754760E+02   6.571141E+01   3.535936E+01   2.944234E+01   2.977083E+01   5.194230E+01   9.549097E+01   1.653847E+02   3.518116E+02   2.941015E+02   1.872078E+02   3.435071E+02   1.721918E+02   1.329940E+02   1.271245E+02   1.630344E+02   1.449694E+02   1.826169E+02   1.043579E+02   9.091911E+01   3.319221E+01   4.086274E+01   3.075785E+01   5.541323E+01   5.258018E+01   1.158840E+02   6.473392E+01   3.050744E+01   1.710797E+01   6.555014E+01   5.870523E+01   7.639005E+01   3.288242E+02   4.170843E+02   6.583691E+02   1.057171E+02   2.143751E+02   6.915139E+01   5.090512E+01   6.796961E+01   4.373271E+01   4.202055E+01   5.800679E+01   4.820338E+01   6.729910E+01   1.208255E+02   1.968350E+02   1.711855E+02   7.888307E+01   4.388608E+02   2.096170E+02   1.226453E+02   7.576414E+01   6.282640E+01   1.451785E+02   5.503033E+01   6.009617E+01   3.675475E+01   8.904129E+01   2.456154E+01   5.191036E+01   5.437250E+01   8.421366E+01   2.639991E+02   1.052631E+02   1.912905E+02   3.103539E+02   1.524529E+02   3.129950E+02   6.550361E+01   3.216290E+01   1.166070E+01   1.166070E+01   2.089253E+01   3.410381E+01   3.410381E+01   1.022221E+01   1.115940E+02   1.115940E+02   5.568286E+01   5.568286E+01   5.568286E+01   6.168062E+01   6.168062E+01   6.168062E+01   1.199056E+02   1.199056E+02   1.199056E+02   1.199056E+02   1.199056E+02   1.335049E+02   1.335049E+02   1.335049E+02   1.335049E+02   1.335049E+02   1.133127E+02   1.133127E+02   1.133127E+02   1.133127E+02   1.133127E+02   1.133127E+02   1.133127E+02   9.734774E+01   9.734774E+01   9.734774E+01   9.734774E+01   9.734774E+01   9.734774E+01   9.734774E+01   9.734774E+01   9.734774E+01   9.734774E+01   7.119167E+01   7.119167E+01   7.119167E+01   7.119167E+01   7.119167E+01   7.119167E+01   7.119167E+01   7.119167E+01   7.119167E+01   1.212804E+02   1.212804E+02   1.212804E+02   1.212804E+02   1.212804E+02   1.212804E+02   1.212804E+02   1.501599E+02   1.501599E+02   1.501599E+02   1.501599E+02   1.501599E+02   1.491214E+02   1.491214E+02   1.491214E+02   1.491214E+02   3.428681E+02   3.428681E+02   3.428681E+02   1.363366E+02   1.363366E+02   1.400574E+02   1.400574E+02   1.164384E+02   1.164384E+02   4.440345E+01   1.651316E+02   2.418927E+02   2.418927E+02   2.689057E+02   2.754653E+02   1.471471E+02   8.550834E+01   2.247433E+02   1.776323E+02   2.059637E+02   2.101581E+02   1.053821E+02   1.545851E+02   1.231964E+02   8.372314E+01   1.398145E+02   1.090870E+02   3.527271E+01   2.609693E+01   3.518316E+01   1.663954E+01   3.351838E+01   2.107396E+01   5.632503E+01   8.490878E+01   6.049823E+01   3.571152E+01   2.047448E+01   2.268116E+01   1.193471E+01   4.712280E+00   4.258179E+01   4.050756E+01   8.591601E+01   4.865933E+01   7.885927E+01   1.808289E+02   2.147905E+02   3.663974E+02   2.431802E+02   1.882633E+02   5.011485E+01
   8.983862E+01   1.104027E+02   1.524013E+02   1.246499E+02   7.341855E+01   1.056600E+02   8.900571E+01   7.851628E+01   1.670927E+01   1.305430E+02   1.116379E+02   5.118286E+02   4.740987E+02   3.642311E+02   3.200141E+02   6.482528E+02   2.994715E+02   2.274773E+02   1.225106E+02   7.218758E+01   4.670847E+01   3.886453E+01   6.174673E+01   4.827710E+01   9.927867E+01   1.633410E+02   2.495851E+02   1.896506E+02   9.945773E+01   1.684460E+02   7.162811E+01   9.077793E+01   5.769389E+01   3.700608E+02   2.609034E+02   2.795943E+02   1.912025E+02   5.540130E+01   3.892122E+01   3.574183E+01   2.973509E+01   4.141731E+01   4.032870E+01   1.079784E+02   9.115303E+01   6.457703E+01   2.778200E+01   4.422475E+01   4.203444E+01   9.600230E+01   1.899093E+02   2.183895E+02   2.151946E+02   1.186897E+02   6.992500E+01   3.983925E+01   4.142493E+01   6.647558E+01   2.773338E+01   5.602687E+01   3.044074E+01   3.034755E+01   1.069344E+02   2.510378E+02   1.799302E+02   3.057800E+02   1.219219E+02   3.899921E+02   1.684134E+02   3.188260E+02   3.252026E+02   1.415490E+02   1.179732E+02   5.546161E+01   2.409922E+01   1.738921E+01   5.829186E+01   2.026285E+01   1.190458E+02   4.335225E+01   7.961623E+01   1.970442E+02   1.418270E+02   1.219617E+02   2.238041E+02   2.220515E+02   3.004653E+02   1.216162E+02   1.916273E+01   1.576860E+01   1.576860E+01   2.464774E+01   6.446168E+01   6.446168E+01   1.792399E+01   5.296015E+01   5.296015E+01   3.128418E+01   3.128418E+01   3.128418E+01   5.836540E+01   5.836540E+01   5.836540E+01   8.218264E+01   8.218264E+01   8.218264E+01   8.218264E+01   8.218264E+01   1.725869E+02   1.725869E+02   1.725869E+02   1.725869E+02   1.725869E+02   8.065827E+01   8.065827E+01   8.065827E+01   8.065827E+01   8.065827E+01   8.065827E+01   8.065827E+01   1.258025E+02   1.258025E+02   1.258025E+02   1.258025E+02   1.258025E+02   1.258025E+02   1.258025E+02   1.258025E+02   1.258025E+02   1.258025E+02   2.313624E+02   2.313624E+02   2.313624E+02   2.313624E+02   2.313624E+02   2.313624E+02   2.313624E+02   2.313624E+02   2.313624E+02   2.306647E+02   2.306647E+02   2.306647E+02   2.306647E+02   2.306647E+02   2.306647E+02   2.306647E+02   1.494323E+02   1.494323E+02   1.494323E+02   1.494323E+02   1.494323E+02   2.531819E+02   2.531819E+02   2.531819E+02   2.531819E+02   3.511077E+02   3.511077E+02   3.511077E+02   1.934896E+02   1.934896E+02   1.342316E+02   1.342316E+02   1.788677E+02   1.788677E+02   7.968724E+01   3.143357E+02   2.420213E+02   2.420213E+02   3.324209E+02   2.921147E+02   1.348813E+02   1.497890E+02   2.766773E+02   1.369990E+02   2.502622E+02   1.451001E+02   9.378192E+01   8.113280E+01   7.123881E+01   9.505164E+01   5.765592E+01   1.396823E+02   3.968240E+01   3.485979E+01   3.341294E+01   2.226131E+01   2.115383E+01   5.066181E+01   5.829803E+01   7.429980E+01   6.541539E+01   4.139701E+01   3.681292E+01   4.604720E+01   7.254035E+00   1.551301E+01   3.608066E+01   5.551774E+01   8.517977E+01   6.237146E+01   1.581773E+02   2.616177E+02   2.818996E+02   1.925105E+02   2.328306E+02   3.297538E+02   8.211167E+01
   1.589510E+02   1.022520E+02   6.706695E+01   4.216925E+01   1.648629E+02   8.247638E+01   6.568150E+01   1.403504E+01   1.556185E+01   1.188892E+02   2.690061E+02   7.079633E+02   1.117500E+03   2.459424E+02   3.128697E+02   5.387912E+02   5.707025E+02   2.129615E+02   1.299393E+02   3.370832E+02   1.345673E+02   7.112753E+01   6.355459E+01   6.745457E+01   5.394875E+01   1.727231E+02   1.904026E+02   1.514830E+02   1.143390E+02   2.045558E+02   1.449867E+02   1.395386E+02   1.042470E+02   6.260104E+02   2.251945E+02   2.956500E+02   1.217539E+02   1.096492E+02   5.327545E+01   3.089678E+01   4.023574E+01   5.549372E+01   4.231296E+01   8.584563E+01   8.305230E+01   6.414567E+01   5.319269E+01   4.859532E+01   4.006717E+01   1.112835E+02   1.151499E+02   1.403620E+02   2.584448E+02   4.471766E+01   4.932737E+01   5.858339E+01   5.983868E+01   3.486324E+01   2.629516E+01   4.387746E+01   5.517954E+01   8.778259E+01   1.573422E+02   2.078021E+02   1.076886E+02   2.411044E+02   1.533293E+02   5.771879E+02   2.634691E+02   4.190087E+02   4.762594E+02   4.921204E+02   9.291183E+01   8.431918E+01   3.643024E+01   3.522351E+01   2.733005E+01   1.263809E+01   4.383245E+01   1.058124E+02   6.901697E+01   8.726760E+01   1.316084E+02   1.345831E+02   1.725250E+02   2.573105E+02   1.845388E+02   8.756599E+01   1.379916E+01   1.067093E+01   1.067093E+01   2.919063E+01   4.324451E+01   4.324451E+01   2.944726E+01   2.989281E+01   2.989281E+01   3.768658E+01   3.768658E+01   3.768658E+01   8.554061E+01   8.554061E+01   8.554061E+01   9.383301E+01   9.383301E+01   9.383301E+01   9.383301E+01   9.383301E+01   1.924265E+02   1.924265E+02   1.924265E+02   1.924265E+02   1.924265E+02   6.886373E+01   6.886373E+01   6.886373E+01   6.886373E+01   6.886373E+01   6.886373E+01   6.886373E+01   1.283656E+02   1.283656E+02   1.283656E+02   1.283656E+02   1.283656E+02   1.283656E+02   1.283656E+02   1.283656E+02   1.283656E+02   1.283656E+02   3.003949E+02   3.003949E+02   3.003949E+02   3.003949E+02   3.003949E+02   3.003949E+02   3.003949E+02   3.003949E+02   3.003949E+02   2.698873E+02   2.698873E+02   2.698873E+02   2.698873E+02   2.698873E+02   2.698873E+02   2.698873E+02   2.792456E+02   2.792456E+02   2.792456E+02   2.792456E+02   2.792456E+02   4.383694E+02   4.383694E+02   4.383694E+02   4.383694E+02   2.967383E+02   2.967383E+02   2.967383E+02   1.888175E+02   1.888175E+02   1.396923E+02   1.396923E+02   1.515824E+02   1.515824E+02   9.573643E+01   2.893944E+02   1.732196E+02   1.732196E+02   3.769547E+02   5.923445E+02   1.987151E+02   1.192879E+02   1.669861E+02   1.349012E+02   3.452051E+02   6.714790E+01   7.885083E+01   1.261750E+02   8.678439E+01   1.542127E+02   9.265749E+01   1.438161E+02   8.466531E+01   5.661181E+01   2.264242E+01   2.312521E+01   5.515846E+01   3.399193E+01   1.028656E+02   1.693449E+02   7.998848E+01   4.736461E+01   2.057088E+01   4.207360E+01   2.071473E+01   1.233812E+01   3.321587E+01   8.794287E+01   1.353377E+02   1.596508E+02   1.624157E+02   1.093976E+02   1.728371E+02   2.341067E+02   1.515318E+02   2.412193E+02   1.539563E+02
   1.058842E+02   1.213243E+02   6.736993E+01   2.805909E+01   6.517805E+01   6.651181E+01   3.940658E+01   7.345351E+00   1.989855E+01   9.244573E+01   2.573405E+02   8.356240E+02   7.058608E+02   6.559862E+02   3.619623E+02   2.081260E+02   6.045225E+02   3.210905E+02   1.698226E+02   2.234676E+02   1.633893E+02   1.604097E+02   8.574198E+01   7.127861E+01   5.798861E+01   1.217469E+02   1.012452E+02   4.306032E+01   6.216921E+01   3.049556E+02   2.232937E+02   1.988791E+02   2.843753E+02   6.818907E+02   1.988659E+02   2.383711E+02   3.002168E+02   1.723041E+02   7.484873E+01   2.648948E+01   2.498970E+01   3.247257E+01   8.540236E+01   1.043707E+02   5.646012E+01   2.787691E+01   5.301432E+01   1.844618E+01   7.092200E+01   6.187754E+01   7.054946E+01   6.937033E+01   5.817545E+01   4.694312E+01   1.943105E+01   2.615835E+01   6.241224E+01   5.516951E+01   5.517247E+01   4.758165E+01   1.154490E+02   3.463098E+02   1.414556E+02   1.904942E+02   2.029984E+02   1.566790E+02   2.901678E+02   5.219089E+02   2.508055E+02   5.119503E+02   2.970212E+02   8.963107E+02   6.290033E+01   2.095997E+01   3.162540E+01   1.985108E+01   1.894960E+01   1.838349E+01   5.418756E+01   1.464753E+02   9.403735E+01   1.057311E+02   7.772497E+01   1.009670E+02   1.236891E+02   6.893534E+02   8.134066E+01   5.691804E+01   1.551204E+01   1.268195E+01   1.268195E+01   2.635749E+01   3.633688E+01   3.633688E+01   1.995416E+01   4.269073E+01   4.269073E+01   4.692473E+01   4.692473E+01   4.692473E+01   7.490170E+01   7.490170E+01   7.490170E+01   4.739435E+01   4.739435E+01   4.739435E+01   4.739435E+01   4.739435E+01   1.310328E+02   1.310328E+02   1.310328E+02   1.310328E+02   1.310328E+02   1.414412E+02   1.414412E+02   1.414412E+02   1.414412E+02   1.414412E+02   1.414412E+02   1.414412E+02   2.366449E+02   2.366449E+02   2.366449E+02   2.366449E+02   2.366449E+02   2.366449E+02   2.366449E+02   2.366449E+02   2.366449E+02   2.366449E+02   3.127512E+02   3.127512E+02   3.127512E+02   3.127512E+02   3.127512E+02   3.127512E+02   3.127512E+02   3.127512E+02   3.127512E+02   5.279668E+02   5.279668E+02   5.279668E+02   5.279668E+02   5.279668E+02   5.279668E+02   5.279668E+02   2.282669E+02   2.282669E+02   2.282669E+02   2.282669E+02   2.282669E+02   2.420755E+02   2.420755E+02   2.420755E+02   2.420755E+02   1.818774E+02   1.818774E+02   1.818774E+02   1.754986E+02   1.754986E+02   1.211635E+02   1.211635E+02   4.201209E+02   4.201209E+02   7.772749E+01   3.017928E+02   2.948557E+02   2.948557E+02   3.053613E+02   2.402735E+02   1.753622E+02   1.090446E+02   1.894282E+02   1.126058E+02   2.528127E+02   9.967583E+01   7.826970E+01   5.361644E+01   5.280314E+01   9.843110E+01   1.054444E+02   8.443727E+01   9.358744E+01   4.995559E+01   4.396247E+01   1.429040E+01   8.536528E+01   8.054853E+01   9.888800E+01   2.139867E+02   4.540274E+01   7.486180E+01   1.465452E+01   2.824510E+01   1.771251E+01   1.665364E+01   4.342420E+01   1.044843E+02   2.462710E+02   1.920973E+02   2.442526E+02   9.673767E+01   8.598576E+01   1.516373E+02   1.743661E+02   3.170499E+02   8.871309E+01
   9.985623E+01   1.430718E+02   1.592407E+02   5.964517E+01   1.480461E+02   5.607042E+01   1.592948E+01   1.013107E+01   1.057476E+01   9.731277E+01   9.851434E+01   5.857041E+02   2.856608E+02   1.628652E+03   5.086820E+02   2.028097E+02   2.300330E+02   2.471220E+02   1.277389E+02   1.864623E+02   2.107138E+02   1.129227E+02   1.371201E+02   3.060935E+01   8.759692E+01   1.078717E+02   8.501690E+01   7.185571E+01   1.027322E+02   1.375654E+02   2.607261E+02   1.312663E+02   3.399878E+02   2.703708E+02   1.785827E+02   2.829639E+02   1.808524E+02   1.070444E+02   5.453540E+01   5.124039E+01   2.000342E+01   3.971522E+01   5.281406E+01   1.250032E+02   9.868225E+01   5.354341E+01   6.828727E+01   2.922632E+01   5.522503E+01   2.285642E+01   5.680316E+01   3.651302E+01   4.201370E+01   4.064413E+01   3.498186E+01   2.861993E+01   3.091907E+01   7.279932E+01   6.188282E+01   7.304586E+01   3.711379E+02   3.107145E+02   3.304371E+02   2.908096E+02   3.027290E+02   3.388716E+02   3.277494E+02   6.013591E+02   1.856260E+02   2.841920E+02   1.863053E+02   3.480930E+02   2.841186E+01   1.985050E+01   1.935018E+01   4.002739E+01   1.516968E+01   1.986803E+01   7.499431E+01   1.692335E+02   6.781660E+01   5.153999E+01   1.042535E+02   1.394806E+02   1.555691E+02   5.761342E+02   8.586160E+01   4.220848E+01   1.357138E+01   2.164152E+01   2.164152E+01   3.347121E+01   4.007541E+01   4.007541E+01   1.219626E+01   4.884575E+01   4.884575E+01   4.010519E+01   4.010519E+01   4.010519E+01   2.837290E+01   2.837290E+01   2.837290E+01   3.078019E+01   3.078019E+01   3.078019E+01   3.078019E+01   3.078019E+01   1.111857E+02   1.111857E+02   1.111857E+02   1.111857E+02   1.111857E+02   1.284358E+02   1.284358E+02   1.284358E+02   1.284358E+02   1.284358E+02   1.284358E+02   1.284358E+02   1.299330E+02   1.299330E+02   1.299330E+02   1.299330E+02   1.299330E+02   1.299330E+02   1.299330E+02   1.299330E+02   1.299330E+02   1.299330E+02   2.927931E+02   2.927931E+02   2.927931E+02   2.927931E+02   2.927931E+02   2.927931E+02   2.927931E+02   2.927931E+02   2.927931E+02   3.920559E+02   3.920559E+02   3.920559E+02   3.920559E+02   3.920559E+02   3.920559E+02   3.920559E+02   3.728940E+02   3.728940E+02   3.728940E+02   3.728940E+02   3.728940E+02   1.775325E+02   1.775325E+02   1.775325E+02   1.775325E+02   1.274855E+02   1.274855E+02   1.274855E+02   8.729193E+01   8.729193E+01   1.517773E+02   1.517773E+02   3.879838E+02   3.879838E+02   1.915046E+02   1.406563E+02   1.406342E+02   1.406342E+02   2.211841E+02   1.860234E+02   9.390685E+01   1.359070E+02   1.444193E+02   1.466963E+02   1.244699E+02   1.033262E+02   5.422316E+01   2.250647E+01   4.395604E+01   8.610194E+01   6.760610E+01   2.177782E+02   4.146606E+01   7.408138E+01   8.249744E+01   3.494608E+01   1.513919E+02   1.012247E+02   7.089758E+01   2.184881E+02   6.340333E+01   7.571629E+01   1.535070E+01   2.122789E+01   1.061353E+01   9.584014E+00   3.587580E+01   1.063111E+02   4.940128E+02   2.799704E+02   3.763611E+02   7.748141E+01   3.426616E+01   9.152737E+01   6.736504E+01   2.653201E+02   1.011454E+02
   6.907241E+01   1.529272E+02   1.811344E+02   9.880463E+01   1.534202E+02   2.991918E+01   2.308831E+01   1.444297E+01   3.440301E+01   5.999124E+01   1.302726E+02   3.619727E+02   2.513509E+02   9.078610E+02   8.291514E+02   1.897955E+02   1.220624E+02   2.095262E+02   8.036243E+01   1.883254E+02   2.674528E+02   1.495463E+02   1.310063E+02   4.208562E+01   7.917986E+01   1.018251E+02   4.853957E+01   6.649615E+01   9.976689E+01   1.134274E+02   1.617367E+02   1.156414E+02   2.693990E+02   1.500914E+02   2.472827E+02   1.378788E+02   1.803227E+02   7.467577E+01   5.329126E+01   4.748648E+01   2.724790E+01   6.045511E+01   6.846468E+01   1.923897E+02   1.280127E+02   4.388517E+01   1.306471E+02   2.026205E+01   5.970409E+01   4.876674E+01   2.870707E+01   5.811909E+01   3.541596E+01   5.004504E+01   4.087626E+01   2.528044E+01   3.100517E+01   9.052681E+01   4.577103E+01   8.208425E+01   2.242118E+02   3.840316E+02   4.640496E+02   3.004526E+02   2.845322E+02   2.575689E+02   1.640825E+02   5.535450E+02   3.213476E+02   2.595987E+02   3.261287E+02   1.365156E+02   2.836292E+01   1.318457E+01   2.564238E+01   3.020178E+01   2.033403E+01   4.929805E+01   1.788605E+02   2.053687E+02   1.399548E+02   9.126576E+01   8.483227E+01   1.995423E+02   2.613853E+02   3.935658E+02   9.341620E+01   3.365022E+01   4.424312E+01   2.164428E+01   2.164428E+01   5.376098E+01   2.414044E+01   2.414044E+01   2.503054E+01   4.136267E+01   4.136267E+01   1.935898E+01   1.935898E+01   1.935898E+01   6.444303E+01   6.444303E+01   6.444303E+01   7.760048E+00   7.760048E+00   7.760048E+00   7.760048E+00   7.760048E+00   4.102349E+01   4.102349E+01   4.102349E+01   4.102349E+01   4.102349E+01   5.310899E+01   5.310899E+01   5.310899E+01   5.310899E+01   5.310899E+01   5.310899E+01   5.310899E+01   8.933463E+01   8.933463E+01   8.933463E+01   8.933463E+01   8.933463E+01   8.933463E+01   8.933463E+01   8.933463E+01   8.933463E+01   8.933463E+01   3.389832E+02   3.389832E+02   3.389832E+02   3.389832E+02   3.389832E+02   3.389832E+02   3.389832E+02   3.389832E+02   3.389832E+02   7.027096E+02   7.027096E+02   7.027096E+02   7.027096E+02   7.027096E+02   7.027096E+02   7.027096E+02   2.456306E+02   2.456306E+02   2.456306E+02   2.456306E+02   2.456306E+02   1.936391E+02   1.936391E+02   1.936391E+02   1.936391E+02   1.780254E+02   1.780254E+02   1.780254E+02   1.820844E+02   1.820844E+02   1.046531E+02   1.046531E+02   2.500464E+02   2.500464E+02   1.794813E+02   6.274809E+01   9.904427E+01   9.904427E+01   2.657446E+02   1.776641E+02   2.866356E+02   4.504785E+02   1.405522E+02   1.686951E+02   1.047345E+02   7.006555E+01   4.215577E+01   2.525004E+01   2.816684E+01   2.362415E+01   1.533346E+02   9.548444E+01   4.322226E+01   8.387427E+01   6.364655E+01   1.311321E+02   2.087903E+02   1.280407E+02   1.088532E+02   8.851137E+01   1.197636E+02   8.379504E+01   3.957973E+01   1.612684E+01   1.234923E+01   1.997397E+01   2.378352E+01   1.342701E+02   2.852489E+02   1.979829E+02   1.362121E+02   1.108411E+02   3.000022E+01   4.790834E+01   6.776971E+01   1.190090E+02   2.202096E+01
   1.096095E+02   7.065903E+01   7.974889E+01   5.096805E+01   7.077415E+01   3.097255E+01   1.793332E+01   1.341300E+01   1.371752E+02   1.747265E+02   2.244941E+02   1.778195E+02   6.913042E+02   6.460817E+02   5.972220E+02   3.732915E+02   1.153806E+02   1.271722E+02   7.696384E+01   8.665294E+01   1.063531E+02   1.422534E+02   1.755448E+02   4.295198E+01   1.122530E+02   6.329877E+01   5.473242E+01   9.446412E+01   8.178430E+01   6.158764E+01   8.325838E+01   1.133067E+02   3.408007E+02   1.580394E+02   4.263061E+02   1.706861E+02   2.711378E+02   1.774637E+02   5.030556E+01   5.351404E+01   2.807964E+01   8.235446E+01   1.141299E+02   2.175689E+02   2.360034E+02   5.478844E+01   4.248059E+01   2.577428E+01   3.100382E+01   4.473949E+01   2.559092E+01   3.617839E+01   2.893614E+01   3.359797E+01   2.798581E+01   4.339927E+01   6.696449E+01   6.798185E+01   6.244259E+01   9.684238E+01   2.082228E+02   4.360017E+02   2.522215E+02   2.804745E+02   4.136674E+02   3.391973E+02   2.585048E+02   3.124964E+02   1.804266E+02   1.724297E+02   1.568278E+02   7.227937E+01   2.732939E+01   8.571144E+00   2.051381E+01   3.206703E+01   2.334821E+01   3.073669E+01   1.242944E+02   1.346027E+02   9.095390E+01   1.114530E+02   5.247177E+01   8.925929E+01   2.619052E+02   1.443891E+02   8.922600E+01   4.340215E+01   6.058514E+01   1.931240E+01   1.931240E+01   8.171106E+01   7.109196E+01   7.109196E+01   6.027345E+01   2.119155E+01   2.119155E+01   3.334848E+01   3.334848E+01   3.334848E+01   4.673991E+01   4.673991E+01   4.673991E+01   5.297008E+00   5.297008E+00   5.297008E+00   5.297008E+00   5.297008E+00   1.852411E+01   1.852411E+01   1.852411E+01   1.852411E+01   1.852411E+01   4.599932E+01   4.599932E+01   4.599932E+01   4.599932E+01   4.599932E+01   4.599932E+01   4.599932E+01   1.409802E+02   1.409802E+02   1.409802E+02   1.409802E+02   1.409802E+02   1.409802E+02   1.409802E+02   1.409802E+02   1.409802E+02   1.409802E+02   3.288978E+02   3.288978E+02   3.288978E+02   3.288978E+02   3.288978E+02   3.288978E+02   3.288978E+02   3.288978E+02   3.288978E+02   8.514287E+02   8.514287E+02   8.514287E+02   8.514287E+02   8.514287E+02   8.514287E+02   8.514287E+02   4.272113E+02   4.272113E+02   4.272113E+02   4.272113E+02   4.272113E+02   1.712049E+02   1.712049E+02   1.712049E+02   1.712049E+02   2.087095E+02   2.087095E+02   2.087095E+02   1.680662E+02   1.680662E+02   1.284873E+02   1.284873E+02   1.682302E+02   1.682302E+02   7.289439E+01   5.745801E+01   7.937514E+01   7.937514E+01   9.796291E+01   2.154322E+02   4.212238E+02   5.761389E+02   1.876590E+02   9.083611E+01   4.031229E+01   6.059724E+01   2.765000E+01   1.437951E+01   2.558603E+01   3.263731E+01   2.513638E+02   1.936273E+02   5.738327E+01   9.430493E+01   1.528942E+02   1.023257E+02   1.237873E+02   1.273203E+02   9.777205E+01   1.882056E+02   1.754087E+02   7.739325E+01   4.563491E+01   3.813980E+01   1.003405E+01   2.755598E+01   2.505604E+01   8.049679E+01   1.611588E+02   2.539650E+02   1.319010E+02   2.004420E+02   7.635185E+01   4.496164E+01   7.237802E+01   4.677085E+01   1.383476E+01
   5.393377E+01   5.381760E+01   4.956293E+01   4.526044E+01   1.192565E+02   2.943931E+01   3.098368E+01   2.274814E+01   4.386683E+01   1.006582E+02   5.008724E+02   3.944401E+02   6.096491E+02   6.323585E+02   3.667949E+02   2.555118E+02   1.516503E+02   7.227710E+01   8.764104E+01   6.205299E+01   1.048032E+02   8.728092E+01   2.094579E+02   7.416720E+01   6.361681E+01   9.942920E+01   5.506541E+01   1.923274E+02   7.765341E+01   7.076369E+01   6.192287E+01   7.451492E+01   1.587956E+02   1.455308E+02   2.264484E+02   4.858485E+02   2.194510E+02   2.969828E+02   1.089005E+02   4.162097E+01   3.155931E+01   6.543581E+01   2.026735E+02   2.568871E+02   2.308762E+02   1.387709E+02   4.626487E+01   5.278212E+01   5.901752E+01   7.105795E+01   3.784976E+01   4.468298E+01   6.813636E+01   3.035983E+01   9.884311E+01   7.723228E+01   1.216303E+02   8.001152E+01   1.168099E+02   4.885249E+01   1.468069E+02   5.297153E+02   5.263588E+02   2.782322E+02   4.439774E+02   1.607189E+02   3.967367E+02   2.379247E+02   2.280601E+02   2.484940E+02   1.111917E+02   4.953140E+01   4.759750E+01   1.088909E+01   1.292313E+01   4.143998E+01   6.607487E+01   3.954014E+01   6.794238E+01   1.284922E+02   4.773079E+01   9.722954E+01   1.111790E+02   9.757912E+01   1.266726E+02   9.459721E+01   4.143056E+01   2.750380E+01   3.011827E+01   4.926861E+01   4.926861E+01   9.836433E+01   1.880090E+02   1.880090E+02   4.898783E+01   2.230624E+01   2.230624E+01   3.448780E+01   3.448780E+01   3.448780E+01   3.226379E+01   3.226379E+01   3.226379E+01   1.324965E+01   1.324965E+01   1.324965E+01   1.324965E+01   1.324965E+01   4.514357E+01   4.514357E+01   4.514357E+01   4.514357E+01   4.514357E+01   8.600082E+01   8.600082E+01   8.600082E+01   8.600082E+01   8.600082E+01   8.600082E+01   8.600082E+01   1.332508E+02   1.332508E+02   1.332508E+02   1.332508E+02   1.332508E+02   1.332508E+02   1.332508E+02   1.332508E+02   1.332508E+02   1.332508E+02   3.033380E+02   3.033380E+02   3.033380E+02   3.033380E+02   3.033380E+02   3.033380E+02   3.033380E+02   3.033380E+02   3.033380E+02   7.083715E+02   7.083715E+02   7.083715E+02   7.083715E+02   7.083715E+02   7.083715E+02   7.083715E+02   4.103166E+02   4.103166E+02   4.103166E+02   4.103166E+02   4.103166E+02   2.716854E+02   2.716854E+02   2.716854E+02   2.716854E+02   1.992516E+02   1.992516E+02   1.992516E+02   4.264680E+01   4.264680E+01   1.059310E+02   1.059310E+02   1.030514E+02   1.030514E+02   3.160890E+01   3.587410E+01   7.835788E+01   7.835788E+01   1.021486E+02   8.841574E+01   1.336607E+02   2.059737E+02   9.405859E+01   7.018651E+01   5.633016E+01   5.863346E+01   3.161185E+01   1.218422E+01   3.241803E+01   3.749105E+01   1.170701E+02   9.526283E+01   9.748260E+01   8.290310E+01   1.569862E+02   1.739271E+02   8.417703E+01   1.665659E+02   1.257590E+02   2.129039E+02   2.332830E+02   1.742216E+02   3.702095E+01   8.345461E+01   3.144954E+01   1.991789E+01   4.845834E+01   5.348847E+01   1.118606E+02   1.376087E+02   8.462476E+01   1.031183E+02   7.812331E+01   4.828344E+01   6.877735E+01   3.485884E+01   1.123895E+01
   1.896592E+01   5.679170E+01   5.666674E+01   1.095221E+02   1.296500E+02   4.180200E+01   9.359014E+01   8.056016E+01   8.080846E+01   2.777397E+02   3.157534E+02   3.180211E+02   5.079087E+02   2.940523E+02   2.949613E+02   1.927735E+02   1.276588E+02   9.725890E+01   9.465155E+01   8.671582E+01   1.040485E+02   5.569975E+01   1.878044E+02   6.107009E+01   1.019915E+02   1.047895E+02   5.007540E+01   9.263747E+01   8.181708E+01   7.680395E+01   4.422977E+01   5.509621E+01   1.570837E+02   1.480713E+02   2.626116E+02   7.277894E+02   3.050685E+02   2.918807E+02   1.510398E+02   1.316281E+02   5.542110E+01   6.747103E+01   2.548715E+02   2.619909E+02   2.599480E+02   1.416679E+02   6.370532E+01   2.843513E+01   4.474537E+01   1.018285E+02   4.650321E+01   4.069487E+01   3.110734E+01   1.270601E+01   9.288071E+01   2.274817E+02   1.698625E+02   8.980241E+01   5.915435E+01   1.053176E+02   1.233291E+02   3.618255E+02   5.477573E+02   2.080275E+02   3.874899E+02   6.921461E+01   2.161643E+02   2.160547E+02   1.154522E+02   1.634673E+02   1.170089E+02   6.577515E+01   4.062286E+01   1.567305E+01   1.843364E+01   3.270683E+01   4.103914E+01   1.628546E+01   3.052236E+01   8.052037E+01   3.602013E+01   9.643516E+01   1.162122E+02   8.690013E+01   7.338882E+01   2.063601E+02   6.220815E+01   1.806934E+01   2.101126E+01   6.478455E+01   6.478455E+01   1.966415E+02   2.131883E+02   2.131883E+02   6.769273E+01   4.700095E+01   4.700095E+01   2.884711E+01   2.884711E+01   2.884711E+01   3.184245E+01   3.184245E+01   3.184245E+01   1.734051E+01   1.734051E+01   1.734051E+01   1.734051E+01   1.734051E+01   3.540264E+01   3.540264E+01   3.540264E+01   3.540264E+01   3.540264E+01   1.209204E+02   1.209204E+02   1.209204E+02   1.209204E+02   1.209204E+02   1.209204E+02   1.209204E+02   1.462042E+02   1.462042E+02   1.462042E+02   1.462042E+02   1.462042E+02   1.462042E+02   1.462042E+02   1.462042E+02   1.462042E+02   1.462042E+02   1.109372E+02   1.109372E+02   1.109372E+02   1.109372E+02   1.109372E+02   1.109372E+02   1.109372E+02   1.109372E+02   1.109372E+02   4.095812E+02   4.095812E+02   4.095812E+02   4.095812E+02   4.095812E+02   4.095812E+02   4.095812E+02   3.901704E+02   3.901704E+02   3.901704E+02   3.901704E+02   3.901704E+02   3.507412E+02   3.507412E+02   3.507412E+02   3.507412E+02   1.590910E+02   1.590910E+02   1.590910E+02   1.693275E+02   1.693275E+02   1.745648E+02   1.745648E+02   1.126628E+02   1.126628E+02   1.088194E+02   8.080246E+01   3.387683E+01   3.387683E+01   4.325323E+01   1.051037E+02   9.584774E+01   1.075909E+02   2.996904E+01   2.727884E+01   3.762760E+01   3.481777E+01   2.457732E+01   1.047998E+01   3.474067E+01   3.622449E+01   4.767019E+01   3.495396E+01   2.462699E+01   8.239810E+01   5.234616E+01   1.639407E+02   9.882635E+01   1.235993E+02   9.148969E+01   1.689536E+02   1.824759E+02   1.485773E+02   4.012064E+01   4.595273E+01   2.841822E+01   1.645201E+01   7.137635E+01   1.355849E+02   1.932732E+02   9.067708E+01   1.620228E+02   9.592836E+01   1.639887E+02   1.586075E+01   3.054515E+01   2.476618E+01   8.202239E+00