# LPF package for  MODFLOW-2005, generated by Flopy.
        53    -1E+30         0  
         1
         0
   0.000000E+00
         0
         0
INTERNAL               1 (207E15.6) -1 #hk layer 1                    
   1.967607E+01   1.365868E+01   6.475907E+00   1.135470E+01   4.619606E+01   7.449117E+01   2.673660E+02   9.121598E+01   4.233110E+01   7.598601E+01   5.852640E+01   5.229581E+01   3.528397E+01   1.500049E+01   3.726399E+00   3.714285E+00   6.758103E+00   4.939006E+00   2.285935E+01   1.553545E+01   4.264406E+01   1.252366E+02   2.510883E+01   2.052429E+01   1.413460E+01   7.990056E+00   8.465261E+00   2.323571E+01   3.916587E+01   1.249668E+01   1.372392E+01   2.725009E+01   5.727564E+01   1.717574E+02   4.175317E+01   1.474905E+01   2.532990E+01   9.203367E+01   3.136747E+01   2.653705E+01   3.379312E+01   5.286896E+01   7.360227E+01   2.206130E+01   1.272406E+01   8.393405E+00   2.171677E+01   5.269659E+01   4.699849E+01   3.684719E+01   5.297788E+00   7.392668E+00   1.275379E+01   6.727648E+00   2.157819E+00   4.073659E+00   1.714659E+00   7.253366E+00   8.000771E+00   1.951092E+01   2.266478E+01   4.872013E+01   3.516044E+01   3.519131E+01   6.830494E+01   4.454100E+01   1.615825E+01   7.858469E+00   9.183859E+00   1.017553E+01   4.404699E+00   1.065227E+01   2.311588E+01   2.233210E+01   1.396805E+01   2.644448E+01   2.069061E+01   2.205695E+01   7.231207E+01   1.077504E+02   1.297460E+02   1.264654E+02   7.997060E+01   3.995097E+01   2.511294E+01   3.967729E+00   7.971184E+00   9.450361E+00   6.100010E+00   1.236175E+01   1.236175E+01   1.393945E+01   2.216293E+01   2.216293E+01   2.739827E+01   8.079353E+01   8.079353E+01   3.747512E+01   3.747512E+01   3.747512E+01   4.401028E+01   4.401028E+01   4.401028E+01   3.274781E+01   3.274781E+01   3.274781E+01   3.274781E+01   3.274781E+01   2.323519E+01   2.323519E+01   2.323519E+01   2.323519E+01   2.323519E+01   3.332034E+01   3.332034E+01   3.332034E+01   3.332034E+01   3.332034E+01   3.332034E+01   3.332034E+01   4.986740E+01   4.986740E+01   4.986740E+01   4.986740E+01   4.986740E+01   4.986740E+01   4.986740E+01   4.986740E+01   4.986740E+01   4.986740E+01   3.294203E+02   3.294203E+02   3.294203E+02   3.294203E+02   3.294203E+02   3.294203E+02   3.294203E+02   3.294203E+02   3.294203E+02   1.655187E+02   1.655187E+02   1.655187E+02   1.655187E+02   1.655187E+02   1.655187E+02   1.655187E+02   2.569080E+01   2.569080E+01   2.569080E+01   2.569080E+01   2.569080E+01   1.621241E+01   1.621241E+01   1.621241E+01   1.621241E+01   2.870994E+01   2.870994E+01   2.870994E+01   3.451240E+01   3.451240E+01   3.785694E+01   3.785694E+01   4.915912E+01   4.915912E+01   6.705878E+01   3.866294E+01   3.159258E+01   3.159258E+01   3.239526E+01   8.067949E+00   5.965733E+00   6.809614E+00   1.381433E+01   1.793252E+01   1.129771E+01   1.912973E+01   2.516887E+01   2.061603E+01   4.698647E+01   2.218709E+01   7.282639E+01   8.958437E+01   1.138683E+02   6.140029E+01   3.516842E+01   3.541671E+01   1.271660E+01   1.164737E+01   1.756519E+01   5.455948E+01   5.456947E+01   2.247281E+01   2.046245E+01   5.858514E+01   2.726045E+01   2.474713E+01   3.407031E+01   8.377440E+01   3.334786E+01   2.702236E+01   1.906931E+01   1.875063E+01   6.170301E+00   8.605881E+00   1.757792E+01   7.603310E+00   4.415613E+00
   8.890164E+00   9.274983E+00   3.744011E+00   1.383369E+01   9.094742E+01   1.060897E+02   3.019431E+02   6.223706E+01   3.690443E+01   4.341867E+01   9.609867E+01   9.436678E+01   2.441745E+01   6.313962E+00   3.970222E+00   5.202274E+00   6.184121E+00   8.700438E+00   1.440460E+01   3.674971E+01   6.154505E+01   9.617971E+01   2.447355E+01   1.815885E+01   6.103401E+00   5.901633E+00   4.415854E+00   2.461881E+01   2.227145E+01   1.268000E+01   1.517259E+01   2.381594E+01   4.096666E+01   8.949950E+01   6.289214E+01   1.307033E+01   3.038570E+01   7.441084E+01   6.876206E+01   5.764322E+01   3.023100E+01   1.057053E+02   4.688958E+01   1.248872E+01   1.741573E+01   1.731543E+01   2.198636E+01   4.558350E+01   3.078123E+01   4.483974E+01   1.020081E+01   6.861678E+00   1.634566E+01   9.053156E+00   5.153288E+00   4.574204E+00   3.479908E+00   2.391380E+00   6.960073E+00   2.362782E+01   1.552585E+01   2.266575E+01   2.434740E+01   2.672901E+01   3.697801E+01   6.709361E+01   1.122584E+01   1.190705E+01   1.532982E+01   1.240231E+01   6.795424E+00   8.664418E+00   2.367435E+01   1.118341E+01   2.480549E+01   3.499687E+01   3.025644E+01   3.317287E+01   3.813544E+01   1.104898E+02   9.573560E+01   1.479728E+02   5.110941E+01   6.604588E+01   2.541956E+01   4.976583E+00   5.443372E+00   8.014975E+00   6.648036E+00   1.359845E+01   1.359845E+01   2.763733E+01   3.714351E+01   3.714351E+01   3.137166E+01   4.804346E+01   4.804346E+01   2.556611E+01   2.556611E+01   2.556611E+01   2.953782E+01   2.953782E+01   2.953782E+01   5.297011E+01   5.297011E+01   5.297011E+01   5.297011E+01   5.297011E+01   1.592590E+01   1.592590E+01   1.592590E+01   1.592590E+01   1.592590E+01   4.914944E+01   4.914944E+01   4.914944E+01   4.914944E+01   4.914944E+01   4.914944E+01   4.914944E+01   1.116456E+02   1.116456E+02   1.116456E+02   1.116456E+02   1.116456E+02   1.116456E+02   1.116456E+02   1.116456E+02   1.116456E+02   1.116456E+02   3.640795E+02   3.640795E+02   3.640795E+02   3.640795E+02   3.640795E+02   3.640795E+02   3.640795E+02   3.640795E+02   3.640795E+02   1.884834E+02   1.884834E+02   1.884834E+02   1.884834E+02   1.884834E+02   1.884834E+02   1.884834E+02   4.174286E+01   4.174286E+01   4.174286E+01   4.174286E+01   4.174286E+01   3.209996E+01   3.209996E+01   3.209996E+01   3.209996E+01   2.151367E+01   2.151367E+01   2.151367E+01   3.746284E+01   3.746284E+01   1.040804E+02   1.040804E+02   4.262160E+01   4.262160E+01   5.516922E+01   1.194240E+02   6.681857E+01   6.681857E+01   4.488365E+01   9.212099E+00   9.225075E+00   2.591975E+00   5.998641E+00   1.175296E+01   1.678033E+01   1.422273E+01   2.270645E+01   1.736613E+01   3.379062E+01   4.925201E+01   4.037177E+01   1.178575E+02   7.597089E+01   3.034337E+01   3.074659E+01   3.139314E+01   8.806578E+00   2.056768E+01   1.863744E+01   3.443829E+01   3.104232E+01   3.641494E+01   2.163871E+01   3.748138E+01   2.835558E+01   2.508111E+01   2.237603E+01   2.021742E+01   4.672027E+01   1.999066E+01   2.095627E+01   2.001506E+01   1.756458E+01   1.677647E+01   1.918608E+01   1.727210E+01   4.246495E+00
   7.538827E+00   8.005607E+00   5.436337E+00   1.329626E+01   5.527303E+01   1.550266E+02   1.659826E+02   7.756573E+01   2.035885E+01   6.668997E+01   6.911408E+01   1.334912E+02   1.417837E+01   7.004042E+00   8.730924E+00   1.512007E+01   8.004225E+00   8.173595E+00   8.316794E+00   1.194938E+01   4.659799E+01   6.193506E+01   2.095961E+01   1.130048E+01   3.135707E+00   4.354669E+00   7.823854E+00   1.224330E+01   1.191824E+01   1.103419E+01   7.788890E+00   1.192237E+01   2.496821E+01   6.974448E+01   2.924431E+01   1.287003E+01   1.798728E+01   9.365437E+01   8.251664E+01   1.066333E+02   5.743430E+01   9.865769E+01   6.930743E+01   9.954257E+00   4.772262E+01   2.630173E+01   2.001512E+01   2.635516E+01   1.858622E+01   6.913535E+01   2.580283E+01   1.156241E+01   1.510766E+01   1.132670E+01   7.990081E+00   4.335453E+00   4.726668E+00   3.828817E+00   3.430283E+00   1.268533E+01   1.042766E+01   1.734276E+01   2.718079E+01   2.522960E+01   3.726950E+01   3.191263E+01   1.575124E+01   6.282385E+00   9.051847E+00   7.540846E+00   1.794632E+01   1.110956E+01   2.429036E+01   1.033991E+01   2.818772E+01   2.164306E+01   2.117402E+01   2.243575E+01   4.008807E+01   1.352639E+02   8.186639E+01   8.131554E+01   5.666425E+01   3.790443E+01   1.797133E+01   3.597883E+00   7.577927E+00   1.093252E+01   1.446792E+01   1.457779E+01   1.457779E+01   2.847388E+01   5.138267E+01   5.138267E+01   3.869827E+01   1.102550E+02   1.102550E+02   4.761269E+01   4.761269E+01   4.761269E+01   2.180893E+01   2.180893E+01   2.180893E+01   3.591819E+01   3.591819E+01   3.591819E+01   3.591819E+01   3.591819E+01   6.738562E+00   6.738562E+00   6.738562E+00   6.738562E+00   6.738562E+00   5.640148E+01   5.640148E+01   5.640148E+01   5.640148E+01   5.640148E+01   5.640148E+01   5.640148E+01   1.351600E+02   1.351600E+02   1.351600E+02   1.351600E+02   1.351600E+02   1.351600E+02   1.351600E+02   1.351600E+02   1.351600E+02   1.351600E+02   3.409324E+02   3.409324E+02   3.409324E+02   3.409324E+02   3.409324E+02   3.409324E+02   3.409324E+02   3.409324E+02   3.409324E+02   3.564248E+02   3.564248E+02   3.564248E+02   3.564248E+02   3.564248E+02   3.564248E+02   3.564248E+02   8.766552E+01   8.766552E+01   8.766552E+01   8.766552E+01   8.766552E+01   5.135236E+01   5.135236E+01   5.135236E+01   5.135236E+01   4.116674E+01   4.116674E+01   4.116674E+01   9.471669E+01   9.471669E+01   2.782147E+02   2.782147E+02   1.111118E+02   1.111118E+02   1.121458E+02   9.717793E+01   6.850851E+01   6.850851E+01   9.686114E+01   2.755422E+01   1.311851E+01   3.252159E+00   4.289617E+00   1.408448E+01   4.235132E+01   1.981778E+01   1.405352E+01   2.907038E+01   3.155622E+01   3.444124E+01   2.461469E+01   4.533787E+01   5.734172E+01   2.448386E+01   3.873218E+01   2.464773E+01   1.781540E+01   2.273134E+01   1.422374E+01   5.418825E+01   6.368711E+01   3.813536E+01   3.906049E+01   3.406166E+01   3.503442E+01   4.454023E+01   4.012716E+01   1.378511E+01   2.654028E+01   3.661772E+01   2.730950E+01   1.611544E+01   3.037347E+01   1.980465E+01   1.615811E+01   2.766426E+01   8.218725E+00
   3.187428E+00   5.032950E+00   1.198134E+01   9.828640E+00   4.268904E+01   1.131205E+02   7.372266E+01   3.830972E+01   2.906712E+01   3.974356E+01   6.908271E+01   1.289717E+02   6.366762E+01   9.914409E+00   1.941965E+01   1.865456E+01   1.611063E+01   8.870038E+00   9.629076E+00   9.528248E+00   2.918424E+01   2.365031E+01   2.154967E+01   2.278540E+01   4.122767E+00   6.488799E+00   1.033630E+01   1.092298E+01   1.778091E+01   5.726568E+00   9.034284E+00   1.105923E+01   3.280877E+01   2.297745E+01   9.456935E+00   1.153055E+01   1.828959E+01   8.331532E+01   4.128630E+01   1.356869E+02   8.975642E+01   8.829559E+01   8.673438E+01   2.275297E+01   3.151635E+01   1.063705E+01   2.674408E+01   1.856587E+01   4.921735E+01   9.306658E+01   4.408188E+01   1.389118E+01   1.512729E+01   1.650830E+01   2.335333E+01   4.981131E+00   5.895799E+00   5.849079E+00   7.257996E+00   1.289494E+01   4.440368E+00   8.410027E+00   2.046967E+01   2.662258E+01   2.724684E+01   2.410121E+01   1.837691E+01   7.755525E+00   8.870317E+00   4.652179E+00   9.902871E+00   1.915568E+01   3.004122E+01   1.386592E+01   3.491611E+01   4.060881E+01   2.084908E+01   1.705791E+01   2.471415E+01   3.851363E+01   6.160831E+01   8.185966E+01   4.169960E+01   3.996938E+01   1.636317E+01   1.079120E+01   1.474974E+01   1.451272E+01   1.679909E+01   2.065475E+01   2.065475E+01   1.463055E+01   3.710546E+01   3.710546E+01   4.966118E+01   7.805164E+01   7.805164E+01   4.093036E+01   4.093036E+01   4.093036E+01   2.784569E+01   2.784569E+01   2.784569E+01   2.455841E+01   2.455841E+01   2.455841E+01   2.455841E+01   2.455841E+01   1.710285E+01   1.710285E+01   1.710285E+01   1.710285E+01   1.710285E+01   8.977873E+01   8.977873E+01   8.977873E+01   8.977873E+01   8.977873E+01   8.977873E+01   8.977873E+01   8.559882E+01   8.559882E+01   8.559882E+01   8.559882E+01   8.559882E+01   8.559882E+01   8.559882E+01   8.559882E+01   8.559882E+01   8.559882E+01   1.324865E+02   1.324865E+02   1.324865E+02   1.324865E+02   1.324865E+02   1.324865E+02   1.324865E+02   1.324865E+02   1.324865E+02   5.884830E+02   5.884830E+02   5.884830E+02   5.884830E+02   5.884830E+02   5.884830E+02   5.884830E+02   2.172790E+02   2.172790E+02   2.172790E+02   2.172790E+02   2.172790E+02   8.215544E+01   8.215544E+01   8.215544E+01   8.215544E+01   8.812557E+01   8.812557E+01   8.812557E+01   1.010329E+02   1.010329E+02   2.768419E+02   2.768419E+02   3.095302E+02   3.095302E+02   2.350636E+02   8.920121E+01   1.422336E+02   1.422336E+02   1.567173E+02   3.003016E+01   2.715317E+01   9.325622E+00   1.267093E+01   7.532481E+00   2.569041E+01   1.259914E+01   1.654452E+01   3.037773E+01   1.384093E+01   2.995925E+01   1.358166E+01   1.922870E+01   2.478600E+01   3.376320E+01   8.188261E+01   1.783224E+01   1.421735E+01   3.344224E+01   1.167851E+01   4.146187E+01   7.509563E+01   7.424100E+01   1.240684E+02   2.956220E+01   6.515401E+01   5.452602E+01   2.122956E+01   5.917717E+00   3.355645E+01   2.425829E+01   3.212212E+01   1.691595E+01   2.989058E+01   1.193706E+01   2.256302E+01   2.823193E+01   1.266271E+01
   4.067402E+00   4.842578E+00   1.093841E+01   1.319086E+01   1.194948E+02   1.433722E+02   5.121614E+01   4.492048E+01   6.904983E+01   6.179495E+01   3.782782E+01   1.032569E+02   6.253997E+01   1.321385E+01   3.186076E+01   2.455625E+01   5.333183E+01   3.954140E+01   1.542694E+01   1.509544E+01   1.755897E+01   3.009893E+01   3.596875E+01   3.847264E+01   9.234221E+00   3.787591E+00   2.847382E+01   2.555999E+01   8.730763E+00   5.988530E+00   9.276836E+00   9.360394E+00   1.618782E+01   1.713609E+01   6.612969E+00   6.205751E+00   1.096226E+01   1.155456E+02   9.619731E+01   1.244184E+02   7.685608E+01   3.781791E+01   2.103414E+01   1.257338E+01   2.926306E+01   4.556290E+00   1.935181E+01   1.779348E+01   3.081885E+01   8.267816E+01   3.894678E+01   1.413559E+01   1.283593E+01   1.622291E+01   1.979138E+01   8.510612E+00   3.517223E+00   5.830517E+00   1.016576E+01   7.694749E+00   2.609835E+00   5.226665E+00   1.177523E+01   7.796690E+00   1.284494E+01   1.726182E+01   1.788677E+01   9.503861E+00   7.004938E+00   9.587402E+00   7.929542E+00   1.349687E+01   1.191017E+01   1.931955E+01   4.496231E+01   1.274798E+01   2.775663E+01   3.487062E+01   4.895829E+01   4.034856E+01   5.904992E+01   1.211177E+02   7.211567E+01   2.337741E+01   9.884127E+00   3.991464E+00   1.677870E+01   1.357724E+01   1.191814E+01   2.306366E+01   2.306366E+01   2.364275E+01   1.282249E+02   1.282249E+02   3.539711E+01   6.987214E+01   6.987214E+01   4.109219E+01   4.109219E+01   4.109219E+01   1.946426E+01   1.946426E+01   1.946426E+01   2.072567E+01   2.072567E+01   2.072567E+01   2.072567E+01   2.072567E+01   3.592474E+01   3.592474E+01   3.592474E+01   3.592474E+01   3.592474E+01   7.210652E+01   7.210652E+01   7.210652E+01   7.210652E+01   7.210652E+01   7.210652E+01   7.210652E+01   2.099181E+02   2.099181E+02   2.099181E+02   2.099181E+02   2.099181E+02   2.099181E+02   2.099181E+02   2.099181E+02   2.099181E+02   2.099181E+02   1.292564E+02   1.292564E+02   1.292564E+02   1.292564E+02   1.292564E+02   1.292564E+02   1.292564E+02   1.292564E+02   1.292564E+02   6.463370E+02   6.463370E+02   6.463370E+02   6.463370E+02   6.463370E+02   6.463370E+02   6.463370E+02   1.142088E+02   1.142088E+02   1.142088E+02   1.142088E+02   1.142088E+02   5.123970E+01   5.123970E+01   5.123970E+01   5.123970E+01   4.168456E+01   4.168456E+01   4.168456E+01   4.898177E+01   4.898177E+01   2.052941E+02   2.052941E+02   2.193176E+02   2.193176E+02   9.120258E+01   1.287636E+02   4.635544E+01   4.635544E+01   5.528561E+01   2.084452E+01   2.432440E+01   7.054981E+00   1.444523E+01   1.848421E+01   1.498452E+01   5.013557E+00   1.192003E+01   1.822307E+01   3.976590E+01   3.468623E+01   1.565619E+01   2.223630E+01   2.414957E+01   1.741578E+01   2.846094E+01   3.679436E+01   1.390404E+01   3.074433E+01   3.106664E+01   3.683548E+01   6.415588E+01   4.540720E+01   2.048027E+02   5.145346E+01   5.241078E+01   7.401270E+01   1.917859E+01   1.225297E+01   2.398386E+01   1.316104E+01   3.334154E+01   2.096713E+01   2.780923E+01   1.574904E+01   3.489690E+01   1.487385E+01   8.369946E+00
   5.900312E+00   7.476835E+00   7.325706E+00   3.576181E+01   6.836797E+01   2.031093E+02   3.506510E+01   2.606948E+01   4.057782E+01   8.283810E+01   5.851178E+01   1.090186E+02   2.529747E+01   3.124339E+01   5.133649E+01   1.632975E+01   3.076229E+01   5.046597E+01   3.105059E+01   1.635761E+01   3.389213E+01   3.671559E+01   3.947696E+01   5.353825E+01   3.161933E+01   6.834372E+00   2.758513E+01   3.451071E+01   1.498706E+01   8.190264E+00   7.677248E+00   8.788994E+00   1.115503E+01   1.328225E+01   5.103096E+00   9.248643E+00   1.125883E+01   6.307070E+01   1.154422E+02   9.743464E+01   7.481310E+01   2.227313E+01   6.283256E+00   7.365786E+00   5.635392E+00   3.153593E+00   1.413720E+01   3.506616E+01   4.700306E+01   5.052535E+01   1.486116E+01   8.719367E+00   1.258649E+01   5.110215E+01   3.589674E+01   1.684071E+01   7.762775E+00   5.532973E+00   1.331665E+01   1.425771E+01   2.806248E+00   3.761779E+00   4.927128E+00   4.777878E+00   3.280754E+01   4.001626E+01   1.064889E+01   1.414680E+01   1.512140E+01   6.839444E+00   6.804271E+00   1.180213E+01   8.531731E+00   3.032290E+01   3.980144E+01   2.209130E+01   1.695741E+01   7.790295E+01   4.530545E+01   3.935648E+01   3.538914E+01   4.875681E+01   3.945024E+01   1.421765E+01   1.224448E+01   6.099322E+00   1.892734E+01   1.189216E+01   1.374087E+01   4.128047E+01   4.128047E+01   3.456635E+01   1.016881E+02   1.016881E+02   8.886567E+01   1.333090E+02   1.333090E+02   5.125521E+01   5.125521E+01   5.125521E+01   1.273483E+01   1.273483E+01   1.273483E+01   2.322737E+01   2.322737E+01   2.322737E+01   2.322737E+01   2.322737E+01   2.852537E+01   2.852537E+01   2.852537E+01   2.852537E+01   2.852537E+01   8.225063E+01   8.225063E+01   8.225063E+01   8.225063E+01   8.225063E+01   8.225063E+01   8.225063E+01   1.148818E+02   1.148818E+02   1.148818E+02   1.148818E+02   1.148818E+02   1.148818E+02   1.148818E+02   1.148818E+02   1.148818E+02   1.148818E+02   1.896864E+02   1.896864E+02   1.896864E+02   1.896864E+02   1.896864E+02   1.896864E+02   1.896864E+02   1.896864E+02   1.896864E+02   3.859958E+02   3.859958E+02   3.859958E+02   3.859958E+02   3.859958E+02   3.859958E+02   3.859958E+02   7.250307E+01   7.250307E+01   7.250307E+01   7.250307E+01   7.250307E+01   5.128612E+01   5.128612E+01   5.128612E+01   5.128612E+01   1.644623E+01   1.644623E+01   1.644623E+01   1.598295E+01   1.598295E+01   1.480383E+02   1.480383E+02   1.789484E+02   1.789484E+02   9.101501E+01   7.219156E+01   4.818603E+01   4.818603E+01   6.148669E+01   4.766742E+01   3.761993E+01   1.618571E+01   7.002430E+00   3.069345E+01   1.346166E+01   4.905113E+00   1.810202E+01   8.162091E+00   3.990329E+01   3.028111E+01   1.598672E+01   1.468982E+01   1.320335E+01   9.679576E+00   3.414054E+01   2.235876E+01   2.469689E+01   3.771555E+01   5.865166E+01   4.977537E+01   3.761662E+01   1.771355E+01   7.835258E+01   5.722512E+01   2.870192E+01   8.508752E+01   2.923337E+01   2.409715E+01   5.699353E+01   6.521699E+01   1.230767E+02   2.925140E+01   3.837018E+01   2.358916E+01   2.065063E+01   2.117313E+01   5.112281E+00
   1.459617E+01   2.243645E+01   1.483580E+01   3.109034E+01   3.933270E+01   1.435621E+02   4.128273E+01   2.915237E+01   4.709854E+01   5.391420E+01   5.911788E+01   7.448389E+01   2.424735E+01   4.002774E+01   3.953354E+01   3.220429E+01   1.104002E+01   5.049665E+01   3.693094E+01   2.261171E+01   4.639892E+01   3.623766E+01   7.099444E+01   3.560249E+01   4.977975E+01   1.537575E+01   2.934390E+01   2.613707E+01   9.859691E+00   4.715163E+00   7.037508E+00   1.764874E+01   1.419514E+01   9.412269E+00   1.047123E+01   1.309176E+01   1.425174E+01   7.397630E+01   9.227650E+01   7.404689E+01   3.233785E+01   2.180224E+01   3.293788E+00   3.635828E+00   5.452894E-01   4.160466E+00   1.952615E+01   3.301131E+01   4.462090E+01   1.784102E+01   9.793641E+00   1.031823E+01   1.301660E+01   7.198298E+01   4.275283E+01   1.570996E+01   6.580922E+00   8.335281E+00   9.020232E+00   7.910902E+00   3.094250E+00   4.356014E+00   7.610737E+00   1.383689E+01   5.925042E+01   9.452905E+01   3.192760E+01   2.921775E+01   1.143481E+01   5.965579E+00   1.199666E+01   8.127074E+00   9.957517E+00   4.746290E+01   3.150223E+01   1.981844E+01   1.307579E+01   4.066871E+01   6.104190E+01   6.752128E+01   5.421230E+01   7.174666E+01   3.273508E+01   6.030549E+01   1.275873E+01   9.633183E+00   1.144100E+01   2.150185E+01   2.843845E+01   4.864015E+01   4.864015E+01   6.251480E+01   1.514926E+02   1.514926E+02   8.928948E+01   6.635709E+01   6.635709E+01   3.199615E+01   3.199615E+01   3.199615E+01   2.679626E+01   2.679626E+01   2.679626E+01   1.812178E+01   1.812178E+01   1.812178E+01   1.812178E+01   1.812178E+01   2.775041E+01   2.775041E+01   2.775041E+01   2.775041E+01   2.775041E+01   7.408197E+01   7.408197E+01   7.408197E+01   7.408197E+01   7.408197E+01   7.408197E+01   7.408197E+01   7.492635E+01   7.492635E+01   7.492635E+01   7.492635E+01   7.492635E+01   7.492635E+01   7.492635E+01   7.492635E+01   7.492635E+01   7.492635E+01   8.117310E+01   8.117310E+01   8.117310E+01   8.117310E+01   8.117310E+01   8.117310E+01   8.117310E+01   8.117310E+01   8.117310E+01   1.053494E+02   1.053494E+02   1.053494E+02   1.053494E+02   1.053494E+02   1.053494E+02   1.053494E+02   5.175093E+01   5.175093E+01   5.175093E+01   5.175093E+01   5.175093E+01   4.700277E+01   4.700277E+01   4.700277E+01   4.700277E+01   2.202003E+01   2.202003E+01   2.202003E+01   1.379109E+01   1.379109E+01   8.047356E+01   8.047356E+01   3.230794E+02   3.230794E+02   1.102746E+02   2.305611E+01   2.023061E+01   2.023061E+01   2.525874E+01   3.857988E+01   2.435231E+01   2.721422E+01   1.750476E+01   4.854690E+01   2.305221E+01   3.701261E+00   1.075719E+01   5.931288E+00   1.449229E+01   2.055411E+01   9.770118E+00   3.441744E+00   7.715466E+00   1.636396E+01   2.254047E+01   9.901492E+00   2.848461E+01   3.788303E+01   2.226259E+01   3.390491E+01   1.575046E+01   1.488528E+01   4.181252E+01   5.826837E+01   2.697224E+01   6.480476E+01   1.044895E+02   3.250893E+01   4.969955E+01   4.751082E+01   9.030624E+01   2.525723E+01   4.657779E+01   9.825729E+00   2.031012E+01   1.281048E+01   1.103515E+01
   3.267990E+01   2.592556E+01   2.174395E+01   2.632856E+01   2.670638E+01   5.453996E+01   4.092560E+01   5.580888E+01   3.723791E+01   3.912150E+01   6.960558E+01   6.313634E+01   2.977621E+01   4.520845E+01   1.217109E+02   5.044117E+01   1.255289E+01   3.854409E+01   2.615050E+01   4.253402E+01   4.509705E+01   3.040174E+01   2.898978E+01   2.841012E+01   2.500647E+01   3.670498E+01   2.981709E+01   3.709370E+01   1.080319E+01   7.123401E+00   1.078878E+01   6.617811E+00   4.429586E+00   2.198521E+01   2.605332E+01   1.306103E+01   3.662137E+01   2.369822E+01   5.211866E+01   6.059261E+01   3.283932E+01   6.224502E+00   2.205036E+00   1.429505E+00   9.766838E-01   9.160028E+00   1.283268E+01   3.952563E+01   2.462529E+01   3.134348E+01   1.552493E+01   1.780240E+01   5.418637E+01   1.617909E+02   5.288231E+01   2.040715E+01   8.673073E+00   6.106121E+00   6.375561E+00   3.413655E+00   4.350648E+00   6.327798E+00   1.318531E+01   3.037358E+01   1.063918E+02   1.296233E+02   1.119341E+02   2.481305E+01   1.407454E+01   7.756681E+00   4.121365E+00   9.144408E+00   1.439158E+01   5.908207E+01   3.937522E+01   3.332997E+01   1.632976E+01   2.655368E+01   4.728267E+01   3.303780E+01   7.305537E+01   7.869987E+01   6.911008E+01   1.121552E+02   2.434131E+01   2.164063E+01   2.921837E+01   3.523416E+01   3.986768E+01   1.016564E+02   1.016564E+02   6.181802E+01   7.895230E+01   7.895230E+01   1.053195E+02   5.539042E+01   5.539042E+01   6.605022E+01   6.605022E+01   6.605022E+01   1.545932E+01   1.545932E+01   1.545932E+01   1.906018E+01   1.906018E+01   1.906018E+01   1.906018E+01   1.906018E+01   1.763779E+01   1.763779E+01   1.763779E+01   1.763779E+01   1.763779E+01   3.955421E+01   3.955421E+01   3.955421E+01   3.955421E+01   3.955421E+01   3.955421E+01   3.955421E+01   2.515799E+01   2.515799E+01   2.515799E+01   2.515799E+01   2.515799E+01   2.515799E+01   2.515799E+01   2.515799E+01   2.515799E+01   2.515799E+01   3.556933E+01   3.556933E+01   3.556933E+01   3.556933E+01   3.556933E+01   3.556933E+01   3.556933E+01   3.556933E+01   3.556933E+01   5.346033E+01   5.346033E+01   5.346033E+01   5.346033E+01   5.346033E+01   5.346033E+01   5.346033E+01   3.695724E+01   3.695724E+01   3.695724E+01   3.695724E+01   3.695724E+01   1.959993E+01   1.959993E+01   1.959993E+01   1.959993E+01   9.129950E+00   9.129950E+00   9.129950E+00   1.438140E+01   1.438140E+01   2.514993E+01   2.514993E+01   6.651041E+01   6.651041E+01   7.501721E+01   1.841173E+01   9.161299E+00   9.161299E+00   2.251634E+01   4.086596E+01   3.432940E+01   2.562286E+01   5.564866E+01   5.739353E+01   1.519128E+01   4.754926E+00   6.322945E+00   5.698543E+00   1.079247E+01   1.942575E+01   7.533034E+00   5.963668E+00   7.653668E+00   1.988321E+01   7.169324E+01   2.344733E+01   6.334568E+01   3.446415E+01   1.247727E+01   3.011712E+01   1.620632E+01   1.666274E+01   3.983151E+01   3.867682E+01   4.690543E+01   1.041223E+02   1.420836E+02   1.958960E+01   2.797114E+01   3.829969E+01   8.237679E+01   3.542857E+01   1.575933E+01   5.368926E+00   2.017444E+01   1.361347E+01   5.097569E+00
   3.502575E+01   2.507022E+01   1.824846E+01   1.386868E+01   1.023287E+01   1.385029E+01   9.882117E+00   4.816486E+01   4.126600E+01   5.463261E+01   5.652050E+01   7.665357E+01   3.098761E+01   9.926933E+01   6.446487E+01   9.388043E+01   2.827237E+01   7.899897E+01   4.054902E+01   2.218795E+01   5.437941E+01   2.666736E+01   3.430075E+01   2.389970E+01   3.622173E+01   5.150756E+01   4.070171E+01   4.957173E+01   2.714262E+01   7.944675E+00   1.426683E+01   8.879208E+00   5.670676E+00   1.397411E+01   4.184369E+01   1.754745E+01   5.615786E+01   7.094537E+01   5.481815E+01   5.670338E+01   1.856374E+01   4.556455E+00   3.312952E+00   2.598862E+00   2.723217E+00   6.802645E+00   1.593748E+01   2.997879E+01   2.496373E+01   1.915943E+01   2.963986E+01   2.683409E+01   2.436644E+01   8.917979E+01   2.560046E+01   1.602740E+01   1.153857E+01   8.242940E+00   7.016232E+00   3.989892E+00   4.651472E+00   8.472397E+00   1.574982E+01   3.946404E+01   8.951734E+01   8.372229E+01   5.224041E+01   3.606757E+01   2.733193E+01   2.706771E+01   6.047465E+00   1.214981E+01   1.574300E+01   4.272348E+01   4.754136E+01   1.999614E+01   3.219997E+01   3.007903E+01   5.167207E+01   8.877275E+01   6.957942E+01   9.445316E+01   8.481486E+01   7.323349E+01   6.685136E+01   2.866090E+01   2.834239E+01   2.912102E+01   6.965325E+01   7.468358E+01   7.468358E+01   6.145547E+01   5.707438E+01   5.707438E+01   1.240972E+02   9.215071E+01   9.215071E+01   5.636694E+01   5.636694E+01   5.636694E+01   2.581666E+01   2.581666E+01   2.581666E+01   1.240045E+01   1.240045E+01   1.240045E+01   1.240045E+01   1.240045E+01   1.430781E+01   1.430781E+01   1.430781E+01   1.430781E+01   1.430781E+01   2.028252E+01   2.028252E+01   2.028252E+01   2.028252E+01   2.028252E+01   2.028252E+01   2.028252E+01   4.800633E+01   4.800633E+01   4.800633E+01   4.800633E+01   4.800633E+01   4.800633E+01   4.800633E+01   4.800633E+01   4.800633E+01   4.800633E+01   6.816262E+01   6.816262E+01   6.816262E+01   6.816262E+01   6.816262E+01   6.816262E+01   6.816262E+01   6.816262E+01   6.816262E+01   4.693733E+01   4.693733E+01   4.693733E+01   4.693733E+01   4.693733E+01   4.693733E+01   4.693733E+01   3.518489E+01   3.518489E+01   3.518489E+01   3.518489E+01   3.518489E+01   1.561753E+01   1.561753E+01   1.561753E+01   1.561753E+01   9.000218E+00   9.000218E+00   9.000218E+00   7.181758E+00   7.181758E+00   5.863508E+00   5.863508E+00   1.393348E+01   1.393348E+01   3.468743E+01   1.379346E+01   6.823062E+00   6.823062E+00   3.865747E+01   3.895219E+01   1.868147E+01   4.415271E+01   5.843577E+01   6.555180E+01   9.934388E+00   6.088088E+00   3.906031E+00   6.537255E+00   1.989327E+01   2.038891E+01   8.866937E+00   1.038700E+01   8.155641E+00   1.025895E+01   3.046412E+01   1.708705E+01   3.686512E+01   6.617839E+01   1.602460E+01   1.823098E+01   1.967049E+01   1.390749E+01   2.029667E+01   5.285331E+01   7.620213E+01   7.957148E+01   8.574149E+01   1.262022E+01   2.250523E+01   3.098415E+01   3.353102E+01   1.565757E+01   4.505005E+00   5.735795E+00   2.330823E+01   8.672764E+00   7.890018E+00