# Name file for MT3D-USGS, generated by Flopy version 3.3.2.
LIST              16  whpa.list
FTL               10  mt3d_link.ftl 
BTN               31  whpa.btn
ADV               32  whpa.adv
DSP               33  whpa.dsp
SSM               34  whpa.ssm
GCG               35  whpa.gcg
