# LPF package for  MODFLOW-2005, generated by Flopy.
        53    -1E+30         0  
         1
         0
   0.000000E+00
         0
         0
INTERNAL               1 (207E15.6) -1 #hk layer 1                    
   6.006834E+01   3.098772E+01   1.088306E+01   2.228276E+01   1.439122E+01   2.643658E+01   3.820622E+01   2.260385E+01   3.655859E+01   1.094172E+01   8.446194E+00   3.629317E+01   3.261673E+01   3.059620E+01   5.261901E+01   4.687696E+01   5.759096E+01   3.949482E+01   4.024311E+01   2.834332E+01   1.736247E+01   5.774924E+01   1.221431E+02   1.187724E+02   2.774303E+02   1.183634E+02   1.458745E+02   2.608987E+01   4.083823E+01   9.563443E+01   5.366249E+01   2.593247E+01   5.123069E+01   6.787653E+01   7.900249E+01   3.729786E+01   4.605050E+01   2.383744E+01   1.503386E+01   3.732554E+01   3.337545E+01   3.022584E+01   4.587544E+01   5.955802E+01   9.388241E+01   6.262191E+01   1.038017E+02   6.859739E+01   6.407898E+01   5.159992E+01   6.153000E+01   2.693444E+01   7.374286E+01   1.962037E+02   3.653070E+01   1.721327E+01   3.643105E+01   8.029240E+00   1.270338E+01   2.796052E+01   6.226286E+01   1.084377E+02   1.038779E+02   1.953371E+02   1.477466E+02   3.074338E+01   1.191739E+01   1.023710E+01   1.655663E+01   1.077717E+01   6.819540E+01   1.639404E+02   1.079040E+02   1.145209E+02   6.591652E+01   5.986863E+01   1.152520E+01   3.684436E+01   5.377028E+01   1.728098E+01   3.166974E+01   3.098594E+01   2.804645E+01   1.955829E+01   3.752728E+01   4.066802E+01   1.341029E+01   4.177997E+01   1.181384E+01   1.248677E+01   1.248677E+01   1.622000E+01   1.854657E+01   1.854657E+01   1.110984E+01   1.441946E+01   1.441946E+01   5.093287E+01   5.093287E+01   5.093287E+01   3.396384E+01   3.396384E+01   3.396384E+01   2.976281E+01   2.976281E+01   2.976281E+01   2.976281E+01   2.976281E+01   1.176820E+02   1.176820E+02   1.176820E+02   1.176820E+02   1.176820E+02   6.261053E+01   6.261053E+01   6.261053E+01   6.261053E+01   6.261053E+01   6.261053E+01   6.261053E+01   2.046823E+02   2.046823E+02   2.046823E+02   2.046823E+02   2.046823E+02   2.046823E+02   2.046823E+02   2.046823E+02   2.046823E+02   2.046823E+02   4.567429E+01   4.567429E+01   4.567429E+01   4.567429E+01   4.567429E+01   4.567429E+01   4.567429E+01   4.567429E+01   4.567429E+01   6.744631E+01   6.744631E+01   6.744631E+01   6.744631E+01   6.744631E+01   6.744631E+01   6.744631E+01   5.681220E+01   5.681220E+01   5.681220E+01   5.681220E+01   5.681220E+01   4.350119E+01   4.350119E+01   4.350119E+01   4.350119E+01   1.633989E+01   1.633989E+01   1.633989E+01   5.484328E+01   5.484328E+01   6.435764E+01   6.435764E+01   1.645957E+02   1.645957E+02   2.281973E+02   4.956388E+01   1.050652E+02   1.050652E+02   3.847276E+01   8.790615E+00   1.232548E+01   1.345956E+01   3.597990E+01   4.936837E+01   2.928094E+01   2.450860E+01   4.460488E+01   6.283028E+01   2.845018E+01   2.645321E+01   7.474559E+01   4.418893E+01   2.435864E+01   6.242059E+01   1.459327E+02   1.250791E+02   1.008887E+02   1.121125E+02   2.889072E+01   2.252273E+01   1.378352E+01   9.839909E+00   2.059623E+01   1.819093E+01   5.022416E+01   1.129523E+02   4.197822E+01   3.382627E+01   2.406539E+01   5.693173E+01   4.688380E+01   2.186064E+01   1.663923E+01   2.368817E+00   7.649029E+00   1.739753E+01   3.002645E+01
   3.087404E+01   1.346077E+01   1.659582E+01   4.088218E+01   2.305651E+01   2.161803E+01   1.258306E+02   3.391801E+01   3.134634E+01   1.486750E+01   1.074040E+01   2.374321E+01   4.234947E+01   2.250600E+01   7.448873E+01   6.814777E+01   1.049375E+02   1.911463E+01   1.082308E+02   4.638854E+01   1.956240E+01   5.392709E+01   6.482930E+01   9.999323E+01   2.336941E+02   2.034167E+02   1.482921E+02   8.222417E+01   4.008657E+01   9.758958E+01   7.928859E+01   2.121687E+01   5.914775E+01   9.931074E+01   5.389480E+01   3.670774E+01   9.254360E+01   6.210236E+01   8.188904E+00   3.893344E+01   2.537378E+01   3.914029E+01   3.684543E+01   2.320979E+01   9.780482E+01   1.018276E+02   1.045210E+02   1.186469E+02   5.818547E+01   7.886532E+01   5.111295E+01   3.620672E+01   4.105521E+01   7.915952E+01   2.248082E+01   2.084764E+01   2.410891E+01   1.649115E+01   1.653456E+01   3.661287E+01   6.380718E+01   2.446622E+02   1.169481E+02   2.407685E+02   2.686082E+02   3.118641E+01   1.537362E+01   9.597741E+00   5.091536E+01   1.401589E+01   9.097257E+01   1.102952E+02   1.237836E+02   7.086174E+01   4.411746E+01   3.250459E+01   1.114338E+01   2.318195E+01   2.647521E+01   2.357600E+01   2.264738E+01   3.913184E+01   2.153700E+01   1.405898E+01   3.607207E+01   2.574451E+01   1.013108E+01   4.377476E+01   2.181962E+01   1.156755E+01   1.156755E+01   1.995035E+01   1.950304E+01   1.950304E+01   7.331223E+00   2.294526E+01   2.294526E+01   5.367663E+01   5.367663E+01   5.367663E+01   2.075501E+01   2.075501E+01   2.075501E+01   3.216502E+01   3.216502E+01   3.216502E+01   3.216502E+01   3.216502E+01   1.242408E+02   1.242408E+02   1.242408E+02   1.242408E+02   1.242408E+02   1.186111E+02   1.186111E+02   1.186111E+02   1.186111E+02   1.186111E+02   1.186111E+02   1.186111E+02   1.018275E+02   1.018275E+02   1.018275E+02   1.018275E+02   1.018275E+02   1.018275E+02   1.018275E+02   1.018275E+02   1.018275E+02   1.018275E+02   6.941168E+01   6.941168E+01   6.941168E+01   6.941168E+01   6.941168E+01   6.941168E+01   6.941168E+01   6.941168E+01   6.941168E+01   9.949786E+01   9.949786E+01   9.949786E+01   9.949786E+01   9.949786E+01   9.949786E+01   9.949786E+01   7.794608E+01   7.794608E+01   7.794608E+01   7.794608E+01   7.794608E+01   2.010204E+01   2.010204E+01   2.010204E+01   2.010204E+01   1.759377E+01   1.759377E+01   1.759377E+01   3.542565E+01   3.542565E+01   7.017100E+01   7.017100E+01   9.410164E+01   9.410164E+01   2.597067E+02   7.141705E+01   7.644128E+01   7.644128E+01   4.106475E+01   2.156418E+01   1.692464E+01   1.721786E+01   2.627936E+01   1.683884E+02   6.922157E+01   1.613514E+01   3.060387E+01   5.816224E+01   3.910234E+01   6.758817E+01   2.329556E+02   5.883258E+01   2.863507E+01   5.980142E+01   1.065737E+02   1.851602E+02   1.277195E+02   8.748318E+01   3.176786E+01   1.410997E+01   6.073374E+00   1.378004E+01   2.172059E+01   7.647592E+00   1.039800E+02   6.573204E+01   6.203144E+01   2.803758E+01   4.555673E+01   4.972768E+01   2.459337E+01   2.213830E+01   1.810793E+01   7.114585E+00   1.766933E+01   2.492280E+01   4.273621E+01
   1.275468E+01   1.848287E+01   2.795650E+01   4.851924E+01   2.119675E+01   3.552925E+01   7.101051E+01   9.735745E+01   3.303579E+01   1.458337E+01   7.836597E+00   2.965088E+01   4.601646E+01   4.071850E+01   9.398702E+01   6.051527E+01   1.168643E+02   2.395907E+01   2.895367E+01   2.241059E+01   1.433332E+01   3.404688E+01   7.796030E+01   2.373497E+02   3.562637E+02   2.221691E+02   6.086100E+01   8.387488E+01   7.002031E+01   4.718777E+01   9.877918E+01   4.788468E+01   3.150057E+01   9.731235E+01   5.656938E+01   8.384095E+01   3.502745E+01   7.238379E+01   2.635817E+01   3.238324E+01   2.843700E+01   2.394972E+01   6.452096E+01   4.349933E+01   4.680843E+01   3.772153E+01   8.368002E+01   6.000604E+01   7.575652E+01   9.463644E+01   1.005992E+02   4.024432E+01   3.287642E+01   7.226206E+01   2.335445E+01   2.723627E+01   3.142796E+01   2.667224E+01   1.963743E+01   5.155273E+01   7.877444E+01   2.520086E+02   1.981032E+02   2.626402E+02   1.013889E+02   3.677160E+01   2.059352E+01   1.684987E+01   1.523663E+01   1.160447E+01   7.297443E+01   7.116231E+01   1.842732E+02   8.251629E+01   5.617434E+01   2.263954E+01   1.130165E+01   2.251585E+01   3.005052E+01   6.057851E+01   1.033854E+02   5.754102E+01   1.541828E+01   4.419965E+01   3.398246E+01   2.053776E+01   3.399732E+01   3.713551E+01   1.813900E+01   1.625063E+01   1.625063E+01   1.102909E+01   1.688751E+01   1.688751E+01   1.508131E+01   1.688959E+01   1.688959E+01   1.996532E+01   1.996532E+01   1.996532E+01   1.835357E+01   1.835357E+01   1.835357E+01   6.164814E+01   6.164814E+01   6.164814E+01   6.164814E+01   6.164814E+01   1.052163E+02   1.052163E+02   1.052163E+02   1.052163E+02   1.052163E+02   5.219376E+01   5.219376E+01   5.219376E+01   5.219376E+01   5.219376E+01   5.219376E+01   5.219376E+01   1.158254E+02   1.158254E+02   1.158254E+02   1.158254E+02   1.158254E+02   1.158254E+02   1.158254E+02   1.158254E+02   1.158254E+02   1.158254E+02   1.303278E+02   1.303278E+02   1.303278E+02   1.303278E+02   1.303278E+02   1.303278E+02   1.303278E+02   1.303278E+02   1.303278E+02   3.331674E+02   3.331674E+02   3.331674E+02   3.331674E+02   3.331674E+02   3.331674E+02   3.331674E+02   2.133239E+02   2.133239E+02   2.133239E+02   2.133239E+02   2.133239E+02   1.675998E+01   1.675998E+01   1.675998E+01   1.675998E+01   1.604440E+01   1.604440E+01   1.604440E+01   3.477020E+01   3.477020E+01   8.504137E+01   8.504137E+01   1.454318E+02   1.454318E+02   1.705917E+02   1.446311E+02   9.326878E+01   9.326878E+01   4.617662E+01   3.154572E+01   2.492035E+01   1.460424E+01   3.549912E+01   1.854073E+02   6.840331E+01   5.841101E+01   3.247715E+01   8.946962E+01   7.617498E+01   1.003743E+02   1.130820E+02   5.687295E+01   5.386891E+01   1.068583E+02   7.472207E+01   2.528950E+02   1.331188E+02   1.027370E+02   3.957373E+01   1.464100E+01   1.443893E+01   1.926171E+01   1.939215E+01   1.632360E+01   8.617625E+01   8.435633E+01   1.279840E+02   4.069324E+01   3.401420E+01   4.910235E+01   2.246162E+01   3.201376E+01   3.647797E+01   1.801556E+01   1.034689E+01   4.269198E+01   4.192271E+01
   1.356806E+01   1.707069E+01   1.009824E+01   2.550277E+01   2.865709E+01   2.429469E+01   6.118025E+01   9.636207E+01   2.974093E+01   1.819013E+01   1.142185E+01   2.475828E+01   4.310049E+01   5.233270E+01   1.308261E+02   6.340578E+01   4.666051E+01   5.087378E+01   3.082554E+01   8.178840E+00   1.202779E+01   2.200668E+01   6.717796E+01   1.689726E+02   1.018775E+02   1.116365E+02   3.126408E+01   1.692634E+02   7.731590E+01   4.310070E+01   6.094662E+01   5.427877E+01   2.398183E+01   8.676772E+01   3.035880E+01   3.648423E+01   3.951118E+01   5.631662E+01   3.522140E+01   1.704645E+01   8.389514E+00   2.551442E+01   6.391501E+01   5.219292E+01   2.148425E+01   3.526699E+01   4.176422E+01   6.777682E+01   1.251213E+02   6.245065E+01   1.834824E+02   1.476610E+02   8.522102E+01   4.085720E+01   2.601702E+01   6.737010E+01   8.733329E+01   2.268300E+01   7.322287E+01   2.360533E+01   7.325102E+01   8.964146E+01   1.671971E+02   1.494063E+02   4.874096E+01   3.776989E+01   5.887920E+01   3.327288E+01   3.126274E+01   3.011021E+01   5.540501E+01   6.641841E+01   1.210820E+02   1.607322E+02   5.084275E+01   3.104859E+01   4.342835E+01   3.482265E+01   7.537042E+01   7.879560E+01   7.628186E+01   1.802781E+01   1.244754E+01   1.772670E+01   2.881993E+01   4.854774E+01   5.231800E+01   4.305961E+01   2.704184E+01   1.595556E+01   1.595556E+01   6.958706E+00   1.608872E+01   1.608872E+01   2.666184E+01   1.837627E+01   1.837627E+01   2.757471E+01   2.757471E+01   2.757471E+01   2.640577E+01   2.640577E+01   2.640577E+01   7.433111E+01   7.433111E+01   7.433111E+01   7.433111E+01   7.433111E+01   8.657547E+01   8.657547E+01   8.657547E+01   8.657547E+01   8.657547E+01   4.055730E+01   4.055730E+01   4.055730E+01   4.055730E+01   4.055730E+01   4.055730E+01   4.055730E+01   1.311350E+02   1.311350E+02   1.311350E+02   1.311350E+02   1.311350E+02   1.311350E+02   1.311350E+02   1.311350E+02   1.311350E+02   1.311350E+02   3.394596E+02   3.394596E+02   3.394596E+02   3.394596E+02   3.394596E+02   3.394596E+02   3.394596E+02   3.394596E+02   3.394596E+02   2.895193E+02   2.895193E+02   2.895193E+02   2.895193E+02   2.895193E+02   2.895193E+02   2.895193E+02   4.494264E+02   4.494264E+02   4.494264E+02   4.494264E+02   4.494264E+02   5.552269E+01   5.552269E+01   5.552269E+01   5.552269E+01   2.677591E+01   2.677591E+01   2.677591E+01   2.716022E+01   2.716022E+01   8.800599E+01   8.800599E+01   8.626596E+01   8.626596E+01   1.000331E+02   7.815348E+01   8.406560E+01   8.406560E+01   3.406535E+01   2.036639E+01   2.138008E+01   4.181837E+01   4.920147E+01   1.231974E+02   4.946190E+01   4.430062E+01   6.368348E+01   1.493205E+02   1.693154E+02   1.448114E+02   1.478437E+02   1.043004E+02   4.811642E+01   1.132482E+02   6.407369E+01   1.998976E+02   3.118888E+02   1.071934E+02   4.486509E+01   1.140860E+01   2.225234E+01   1.648678E+01   1.401627E+01   3.231196E+01   4.629151E+01   1.437545E+02   7.357875E+01   3.431628E+01   3.329688E+01   6.421153E+01   8.870560E+01   8.923334E+01   3.886248E+01   6.077899E+01   1.647308E+01   2.193985E+01   4.538765E+01
   1.868456E+01   1.180833E+01   5.121675E+00   1.379508E+01   2.155783E+01   1.465135E+01   4.246339E+01   7.814048E+01   3.601892E+01   2.736296E+01   1.211766E+01   4.034818E+01   3.665717E+01   2.941422E+01   8.650446E+01   5.236610E+01   3.190149E+01   4.791405E+01   2.243129E+01   7.995464E+00   7.095156E+00   9.169024E+00   4.897924E+01   8.542186E+01   1.716235E+02   9.127126E+01   7.148891E+01   1.412080E+02   5.957766E+01   6.717226E+01   3.706692E+01   2.581227E+01   3.549938E+01   9.316720E+01   3.524419E+01   5.006559E+01   5.454153E+01   6.680402E+01   3.760215E+01   2.899148E+01   8.774379E+00   2.371353E+01   5.294838E+01   2.903483E+01   1.818449E+01   3.380770E+01   8.101410E+01   1.171730E+02   9.860577E+01   7.366829E+01   1.219178E+02   9.351215E+01   3.331490E+01   4.443785E+01   6.031527E+01   9.138519E+01   5.368536E+01   7.680025E+01   8.867395E+01   2.119875E+01   2.995107E+01   6.042293E+01   1.836241E+02   9.576961E+01   6.184332E+01   3.238641E+01   5.793546E+01   1.967727E+01   2.924946E+01   4.423008E+01   5.721025E+01   8.566298E+01   1.152074E+02   1.792482E+02   4.301010E+01   8.290495E+01   5.977975E+01   4.030611E+01   5.574527E+01   9.296925E+01   5.974006E+01   1.904395E+01   3.636117E+01   6.423434E+01   1.721992E+01   9.346613E+01   5.092307E+01   1.344163E+02   7.642285E+01   2.742178E+01   2.742178E+01   1.334027E+01   1.390548E+01   1.390548E+01   2.211937E+01   1.531226E+01   1.531226E+01   3.265039E+01   3.265039E+01   3.265039E+01   3.788004E+01   3.788004E+01   3.788004E+01   7.718305E+01   7.718305E+01   7.718305E+01   7.718305E+01   7.718305E+01   5.250142E+01   5.250142E+01   5.250142E+01   5.250142E+01   5.250142E+01   2.734801E+01   2.734801E+01   2.734801E+01   2.734801E+01   2.734801E+01   2.734801E+01   2.734801E+01   4.071959E+01   4.071959E+01   4.071959E+01   4.071959E+01   4.071959E+01   4.071959E+01   4.071959E+01   4.071959E+01   4.071959E+01   4.071959E+01   1.017207E+02   1.017207E+02   1.017207E+02   1.017207E+02   1.017207E+02   1.017207E+02   1.017207E+02   1.017207E+02   1.017207E+02   2.805085E+02   2.805085E+02   2.805085E+02   2.805085E+02   2.805085E+02   2.805085E+02   2.805085E+02   2.192773E+02   2.192773E+02   2.192773E+02   2.192773E+02   2.192773E+02   4.044933E+01   4.044933E+01   4.044933E+01   4.044933E+01   7.066348E+01   7.066348E+01   7.066348E+01   2.069337E+01   2.069337E+01   1.097180E+02   1.097180E+02   4.437212E+01   4.437212E+01   7.903253E+01   1.034787E+02   9.312875E+01   9.312875E+01   4.539738E+01   6.193841E+01   3.899181E+01   4.538047E+01   5.805923E+01   7.018519E+01   5.533187E+01   4.265441E+01   9.447913E+01   1.372144E+02   1.902980E+02   1.604619E+02   9.706683E+01   1.815531E+02   3.975776E+01   5.250709E+01   4.237865E+01   1.196516E+02   2.132111E+02   1.559770E+02   1.341122E+02   2.709592E+01   2.026303E+01   2.192377E+01   1.512896E+01   2.767430E+01   1.544641E+01   2.616391E+01   3.432635E+01   3.693597E+01   4.773217E+01   9.900336E+01   2.005598E+02   1.400508E+02   2.802999E+01   3.412934E+01   2.415922E+01   1.730909E+01   4.631092E+01
   2.554362E+01   1.485862E+01   3.752038E+00   1.414677E+01   2.564157E+01   2.001552E+01   2.593796E+01   5.955592E+01   7.285122E+01   2.135097E+01   1.831024E+01   2.151738E+01   5.294156E+01   3.478822E+01   6.632789E+01   1.202769E+02   5.368528E+01   3.633303E+01   1.310856E+01   1.034779E+01   7.021654E+00   1.334739E+01   5.783068E+01   7.121725E+01   2.125160E+02   1.145862E+02   1.235566E+02   2.373293E+02   1.100122E+02   4.695814E+01   5.737264E+01   2.913851E+01   1.836392E+01   5.314314E+01   3.699777E+01   5.234341E+01   9.538808E+01   6.866178E+01   4.612021E+01   2.349131E+01   9.510878E+00   1.611124E+01   2.117406E+01   1.529740E+01   3.694545E+01   9.297446E+01   7.301011E+01   9.480621E+01   7.102925E+01   7.393563E+01   8.430155E+01   7.658925E+01   2.912648E+01   2.083893E+01   6.907667E+01   6.391450E+01   6.129145E+01   6.063696E+01   1.767617E+02   4.572729E+01   2.564115E+01   3.072725E+01   5.578990E+01   8.346814E+01   4.211737E+01   2.705416E+01   3.094856E+01   1.885258E+01   2.306322E+01   4.441594E+01   3.701199E+01   2.172720E+02   8.105702E+01   1.263291E+02   5.405055E+01   6.299873E+01   2.592547E+01   4.617566E+01   4.766183E+01   3.233747E+01   5.195635E+01   1.127665E+01   4.294088E+01   5.546569E+01   2.860386E+01   7.089034E+01   6.966061E+01   6.768650E+01   8.481607E+01   6.077180E+01   6.077180E+01   1.607319E+01   3.327488E+01   3.327488E+01   1.859328E+01   1.881819E+01   1.881819E+01   3.149840E+01   3.149840E+01   3.149840E+01   7.809103E+01   7.809103E+01   7.809103E+01   5.489231E+01   5.489231E+01   5.489231E+01   5.489231E+01   5.489231E+01   1.551649E+01   1.551649E+01   1.551649E+01   1.551649E+01   1.551649E+01   3.634061E+01   3.634061E+01   3.634061E+01   3.634061E+01   3.634061E+01   3.634061E+01   3.634061E+01   4.448288E+01   4.448288E+01   4.448288E+01   4.448288E+01   4.448288E+01   4.448288E+01   4.448288E+01   4.448288E+01   4.448288E+01   4.448288E+01   6.140005E+01   6.140005E+01   6.140005E+01   6.140005E+01   6.140005E+01   6.140005E+01   6.140005E+01   6.140005E+01   6.140005E+01   2.734943E+02   2.734943E+02   2.734943E+02   2.734943E+02   2.734943E+02   2.734943E+02   2.734943E+02   2.659041E+02   2.659041E+02   2.659041E+02   2.659041E+02   2.659041E+02   7.633337E+01   7.633337E+01   7.633337E+01   7.633337E+01   1.067945E+02   1.067945E+02   1.067945E+02   2.680119E+01   2.680119E+01   1.079492E+02   1.079492E+02   7.777203E+01   7.777203E+01   8.071445E+01   4.185968E+01   5.002868E+01   5.002868E+01   8.766246E+01   2.956490E+01   2.198763E+01   2.736022E+01   7.394129E+01   1.227197E+02   7.154552E+01   1.180180E+02   2.027704E+02   1.129349E+02   1.422413E+02   2.497603E+02   1.086351E+02   9.752540E+01   4.867211E+01   5.127554E+01   3.661469E+01   4.101257E+01   7.887041E+01   9.198631E+01   6.297032E+01   3.079069E+01   1.872249E+01   2.700358E+01   1.238477E+01   1.693378E+01   3.064466E+01   1.006768E+01   6.402895E+01   9.215520E+01   8.371319E+01   9.998142E+01   6.950010E+01   8.725404E+01   2.754712E+01   3.286600E+01   1.259109E+01   9.371167E+00   4.917954E+01
   3.071130E+01   1.573320E+01   9.508260E+00   1.579855E+01   5.559453E+01   2.598057E+01   3.394374E+01   1.047787E+02   1.002902E+02   2.610485E+01   2.752576E+01   1.582078E+01   6.847421E+01   9.514619E+01   7.272128E+01   8.920593E+01   8.109164E+01   3.025173E+01   1.504826E+01   1.301211E+01   1.103041E+01   2.010740E+01   2.726990E+01   8.757778E+01   7.255712E+01   3.984719E+01   3.785487E+01   6.722797E+01   7.880480E+01   4.985866E+01   6.891035E+01   3.891954E+01   2.197660E+01   2.049247E+01   1.516330E+01   2.658540E+01   4.445798E+01   5.912457E+01   2.730201E+01   1.313295E+01   1.257262E+01   2.112302E+01   2.308562E+01   1.186981E+01   1.818841E+01   1.145375E+02   3.268122E+01   9.666521E+01   6.442667E+01   1.084095E+02   9.746461E+01   5.979815E+01   1.807411E+01   4.858023E+01   5.753245E+01   5.575996E+01   9.179981E+01   7.620802E+01   5.742400E+01   5.851918E+01   2.782567E+01   2.656088E+01   3.510856E+01   4.308113E+01   4.786441E+01   3.129379E+01   3.623707E+01   4.549363E+01   2.931766E+01   2.951476E+01   1.831693E+01   2.614878E+02   4.937385E+01   7.284952E+01   8.270967E+01   1.020756E+02   2.449940E+01   3.203263E+01   1.603919E+01   1.923330E+01   5.144806E+01   2.966815E+01   4.447418E+01   3.549388E+01   2.295093E+01   9.019810E+01   7.816791E+01   9.978957E+01   7.081759E+01   4.919579E+01   4.919579E+01   2.411474E+01   2.585681E+01   2.585681E+01   3.595449E+01   3.217373E+01   3.217373E+01   6.398136E+01   6.398136E+01   6.398136E+01   5.249790E+01   5.249790E+01   5.249790E+01   1.127273E+01   1.127273E+01   1.127273E+01   1.127273E+01   1.127273E+01   1.013865E+01   1.013865E+01   1.013865E+01   1.013865E+01   1.013865E+01   2.812294E+01   2.812294E+01   2.812294E+01   2.812294E+01   2.812294E+01   2.812294E+01   2.812294E+01   6.501462E+01   6.501462E+01   6.501462E+01   6.501462E+01   6.501462E+01   6.501462E+01   6.501462E+01   6.501462E+01   6.501462E+01   6.501462E+01   5.674446E+01   5.674446E+01   5.674446E+01   5.674446E+01   5.674446E+01   5.674446E+01   5.674446E+01   5.674446E+01   5.674446E+01   2.273330E+02   2.273330E+02   2.273330E+02   2.273330E+02   2.273330E+02   2.273330E+02   2.273330E+02   2.179940E+02   2.179940E+02   2.179940E+02   2.179940E+02   2.179940E+02   6.988492E+01   6.988492E+01   6.988492E+01   6.988492E+01   9.255116E+01   9.255116E+01   9.255116E+01   7.821568E+01   7.821568E+01   9.359391E+01   9.359391E+01   6.920068E+01   6.920068E+01   4.582610E+01   3.030213E+01   4.999478E+01   4.999478E+01   6.655684E+01   3.847791E+01   2.879276E+01   2.203736E+01   5.229692E+01   1.138874E+02   4.350695E+01   1.372080E+02   1.394298E+02   9.514813E+01   2.025927E+02   2.663351E+02   5.683308E+01   9.346923E+01   8.318052E+01   5.647290E+01   3.196692E+01   2.886365E+01   8.549426E+01   4.894779E+01   1.110890E+02   6.242257E+01   1.334566E+01   1.804799E+01   5.794812E+00   1.213091E+01   1.172790E+01   5.754351E+01   3.955928E+01   7.134252E+01   6.733527E+01   1.032587E+02   7.339375E+01   3.744980E+01   2.289024E+01   4.371804E+01   2.228475E+01   3.125556E+01   4.693631E+01
   6.527055E+01   1.315789E+01   1.505862E+01   1.551486E+01   2.287149E+01   2.842405E+01   2.887991E+01   1.494075E+02   1.635117E+02   3.068166E+01   1.908364E+01   2.195432E+01   1.278577E+02   1.036075E+02   1.325119E+02   1.403873E+02   1.564737E+02   3.595054E+01   2.670421E+01   1.413490E+01   1.604794E+01   2.945765E+01   5.599324E+01   5.433212E+01   6.552174E+01   5.082956E+01   4.533490E+01   9.286986E+01   7.915752E+01   4.422206E+01   3.594103E+01   3.265969E+01   4.368227E+01   2.480038E+01   8.147349E+00   1.345524E+01   1.578060E+01   4.571480E+01   3.656352E+01   2.124257E+01   1.710601E+01   3.490107E+01   1.158400E+01   9.818131E+00   1.533374E+01   5.293309E+01   5.249604E+01   6.542049E+01   5.891652E+01   5.025674E+01   1.031408E+02   1.331623E+02   3.996074E+01   4.144734E+01   3.568277E+01   2.869796E+01   6.599280E+01   8.833197E+01   2.569364E+01   3.806664E+01   3.370921E+01   4.979916E+01   2.538433E+01   5.559094E+01   2.055419E+01   1.192416E+01   1.567804E+01   4.483654E+01   6.147029E+01   4.313515E+01   3.397840E+01   1.178629E+02   3.333726E+01   3.448813E+01   3.648252E+01   5.002066E+01   2.518057E+01   2.727972E+01   1.160656E+01   1.654274E+01   1.692165E+01   2.245029E+01   4.035571E+01   1.523007E+01   3.550765E+01   5.433737E+01   5.858012E+01   3.948470E+01   7.213211E+01   3.026816E+01   3.026816E+01   1.865372E+01   1.765325E+01   1.765325E+01   7.259151E+01   5.653218E+01   5.653218E+01   6.232995E+01   6.232995E+01   6.232995E+01   3.914102E+01   3.914102E+01   3.914102E+01   1.137834E+01   1.137834E+01   1.137834E+01   1.137834E+01   1.137834E+01   5.295814E+00   5.295814E+00   5.295814E+00   5.295814E+00   5.295814E+00   3.507538E+01   3.507538E+01   3.507538E+01   3.507538E+01   3.507538E+01   3.507538E+01   3.507538E+01   5.458942E+01   5.458942E+01   5.458942E+01   5.458942E+01   5.458942E+01   5.458942E+01   5.458942E+01   5.458942E+01   5.458942E+01   5.458942E+01   4.136268E+01   4.136268E+01   4.136268E+01   4.136268E+01   4.136268E+01   4.136268E+01   4.136268E+01   4.136268E+01   4.136268E+01   5.858342E+01   5.858342E+01   5.858342E+01   5.858342E+01   5.858342E+01   5.858342E+01   5.858342E+01   1.551988E+02   1.551988E+02   1.551988E+02   1.551988E+02   1.551988E+02   9.500740E+01   9.500740E+01   9.500740E+01   9.500740E+01   8.355614E+01   8.355614E+01   8.355614E+01   6.852957E+01   6.852957E+01   1.387189E+02   1.387189E+02   2.375606E+01   2.375606E+01   4.705178E+01   3.913868E+01   5.528617E+01   5.528617E+01   1.606154E+02   3.420606E+01   4.273236E+01   2.583872E+01   2.735682E+01   9.987188E+01   5.548130E+01   1.068972E+02   1.532003E+02   1.659168E+02   1.767006E+02   5.650947E+01   5.617338E+01   4.354254E+01   1.819884E+02   6.339866E+01   3.468585E+01   2.594950E+01   4.569214E+01   7.407584E+01   1.071364E+02   6.295490E+01   1.249853E+01   1.267579E+01   6.974358E+00   6.224514E+00   2.562083E+01   6.389344E+01   4.356400E+01   1.582740E+02   1.649103E+02   1.146286E+02   8.243895E+01   5.343496E+01   2.284665E+01   7.918984E+01   2.684703E+01   2.558150E+01   4.339753E+01
   6.670750E+01   2.043850E+01   3.044928E+01   1.189789E+01   1.830617E+01   4.553739E+01   6.056428E+01   1.701671E+02   1.242356E+02   6.936119E+01   2.549165E+01   4.041254E+01   5.021299E+01   1.159244E+02   1.274338E+02   2.962247E+02   1.448117E+02   3.767366E+01   4.111259E+01   4.347657E+01   4.770799E+01   5.226871E+01   6.267411E+01   4.852311E+01   3.376600E+01   2.712457E+01   2.179287E+01   7.869958E+01   1.061454E+02   4.507452E+01   3.078986E+01   2.342340E+01   2.281284E+01   1.549427E+01   4.382456E+00   1.650548E+01   2.241170E+01   6.290207E+01   3.254066E+01   5.384333E+01   1.113736E+01   3.875755E+01   2.945113E+01   1.906905E+01   1.596660E+01   3.672441E+01   3.925739E+01   9.610033E+01   1.594056E+02   8.042068E+01   1.252844E+02   8.763728E+01   3.352756E+01   5.145285E+01   2.589113E+01   3.942659E+01   4.201830E+01   6.749602E+01   2.957568E+01   3.700587E+01   4.420946E+01   2.148574E+01   4.919698E+01   4.761634E+01   1.590764E+01   1.227687E+01   2.504069E+01   9.491611E+01   4.541530E+01   4.707043E+01   5.517715E+01   8.227234E+01   2.097532E+01   2.426914E+01   1.728553E+01   1.716030E+01   2.396366E+01   3.993288E+01   1.849874E+01   1.619877E+01   1.170436E+01   4.711804E+01   8.722294E+01   2.148440E+01   3.786964E+01   6.372132E+01   1.028520E+02   4.546662E+01   4.344071E+01   3.499679E+01   3.499679E+01   1.934151E+01   3.115681E+01   3.115681E+01   3.741479E+01   1.017803E+02   1.017803E+02   1.590908E+02   1.590908E+02   1.590908E+02   2.740024E+01   2.740024E+01   2.740024E+01   9.438602E+00   9.438602E+00   9.438602E+00   9.438602E+00   9.438602E+00   1.045417E+01   1.045417E+01   1.045417E+01   1.045417E+01   1.045417E+01   3.027445E+01   3.027445E+01   3.027445E+01   3.027445E+01   3.027445E+01   3.027445E+01   3.027445E+01   2.474512E+01   2.474512E+01   2.474512E+01   2.474512E+01   2.474512E+01   2.474512E+01   2.474512E+01   2.474512E+01   2.474512E+01   2.474512E+01   3.559722E+01   3.559722E+01   3.559722E+01   3.559722E+01   3.559722E+01   3.559722E+01   3.559722E+01   3.559722E+01   3.559722E+01   5.833711E+01   5.833711E+01   5.833711E+01   5.833711E+01   5.833711E+01   5.833711E+01   5.833711E+01   4.472086E+01   4.472086E+01   4.472086E+01   4.472086E+01   4.472086E+01   5.917103E+01   5.917103E+01   5.917103E+01   5.917103E+01   8.354574E+01   8.354574E+01   8.354574E+01   1.274289E+02   1.274289E+02   3.961890E+01   3.961890E+01   3.400307E+01   3.400307E+01   3.704592E+01   1.082503E+01   3.759776E+01   3.759776E+01   9.711385E+01   3.880385E+01   9.079182E+01   3.331481E+01   2.590820E+01   8.058701E+01   8.820462E+01   1.821441E+02   2.235034E+02   1.387674E+02   5.683012E+01   2.354003E+01   9.393881E+01   1.817852E+02   1.824629E+02   6.602979E+01   6.464164E+01   3.195487E+01   4.178032E+01   5.506127E+01   4.804139E+01   4.655214E+01   2.983818E+01   1.629916E+01   4.911526E+00   6.840341E+00   4.149197E+01   4.162766E+01   5.717765E+01   1.032908E+02   8.653783E+01   4.802404E+01   5.464397E+01   6.131071E+01   6.038516E+01   3.523895E+01   2.461823E+01   6.926484E+01   5.129804E+01