# LPF package for  MODFLOW-2005, generated by Flopy.
        53    -1E+30         0  
         1
         0
   0.000000E+00
         0
         0
INTERNAL               1 (207E15.6) -1 #hk layer 1                    
   3.465010E+01   3.644692E+01   1.482853E+02   1.497076E+02   9.832544E+01   5.173691E+01   2.449785E+01   4.673400E+01   4.632081E+01   4.971424E+01   4.033741E+01   1.100906E+02   1.111357E+02   9.894512E+01   3.873931E+01   3.971245E+01   2.310013E+01   5.364135E+01   5.598935E+01   3.046786E+01   2.427045E+01   3.363519E+01   9.979433E+01   1.170708E+02   5.068592E+01   2.649620E+01   1.257403E+01   2.094778E+01   1.192101E+02   9.777741E+01   1.809525E+02   1.481077E+02   1.129274E+02   1.517733E+02   7.694710E+01   7.175488E+01   8.738498E+01   3.136436E+01   1.221466E+02   2.350782E+02   3.248401E+02   4.947092E+02   5.643755E+02   1.162483E+02   9.054881E+01   5.334233E+01   6.091799E+01   2.237357E+01   1.681096E+01   5.267989E+01   1.528696E+02   1.798492E+02   1.286743E+02   1.087213E+02   7.305457E+01   5.497776E+01   1.643989E+01   5.732466E+01   1.007977E+02   8.077646E+01   3.244329E+01   8.984111E+01   7.342140E+01   1.042631E+02   1.054357E+02   6.774327E+01   5.413652E+01   1.531012E+01   1.549848E+01   2.085653E+01   1.125464E+01   1.624384E+01   1.527493E+01   1.703383E+01   3.339272E+01   8.030267E+01   1.091053E+02   2.052173E+02   1.505363E+02   1.286823E+02   5.589790E+01   1.954469E+01   2.444269E+01   2.174456E+01   1.894793E+01   1.850275E+01   9.036657E+00   3.171932E+01   3.594099E+01   5.494322E+01   5.494322E+01   4.003685E+01   4.970439E+01   4.970439E+01   3.069440E+01   3.084446E+01   3.084446E+01   1.664256E+01   1.664256E+01   1.664256E+01   1.214917E+01   1.214917E+01   1.214917E+01   1.455205E+01   1.455205E+01   1.455205E+01   1.455205E+01   1.455205E+01   8.274904E+00   8.274904E+00   8.274904E+00   8.274904E+00   8.274904E+00   1.559610E+01   1.559610E+01   1.559610E+01   1.559610E+01   1.559610E+01   1.559610E+01   1.559610E+01   2.060557E+01   2.060557E+01   2.060557E+01   2.060557E+01   2.060557E+01   2.060557E+01   2.060557E+01   2.060557E+01   2.060557E+01   2.060557E+01   4.855454E+01   4.855454E+01   4.855454E+01   4.855454E+01   4.855454E+01   4.855454E+01   4.855454E+01   4.855454E+01   4.855454E+01   4.193021E+01   4.193021E+01   4.193021E+01   4.193021E+01   4.193021E+01   4.193021E+01   4.193021E+01   2.623552E+01   2.623552E+01   2.623552E+01   2.623552E+01   2.623552E+01   5.274182E+01   5.274182E+01   5.274182E+01   5.274182E+01   5.474285E+01   5.474285E+01   5.474285E+01   8.244852E+01   8.244852E+01   1.090689E+02   1.090689E+02   2.328712E+02   2.328712E+02   2.546077E+02   4.477254E+01   1.331915E+02   1.331915E+02   4.493134E+02   1.314131E+02   1.387371E+02   6.362791E+01   4.040817E+01   7.619051E+01   9.552131E+01   9.376743E+01   5.222513E+01   5.474740E+01   3.810596E+01   4.617090E+01   8.142693E+01   5.032659E+01   1.433571E+02   2.016446E+02   1.044065E+02   1.465922E+02   5.208419E+01   6.696169E+01   7.411104E+01   9.559588E+01   6.718522E+01   4.475708E+01   2.072621E+01   9.027078E+00   1.919979E+01   1.952464E+01   2.515765E+02   2.210647E+02   8.644823E+01   3.734503E+01   2.960622E+01   1.320948E+02   8.045494E+01   7.077419E+01   4.807853E+01   6.898179E+01   4.952578E+01
   4.017481E+01   2.703019E+01   6.621032E+01   1.604743E+02   7.990138E+01   4.799051E+01   2.805231E+01   3.264950E+01   4.140375E+01   3.985397E+01   6.320694E+01   1.103204E+02   1.329011E+02   4.194281E+01   2.152258E+01   2.016402E+01   1.965644E+01   8.240940E+01   3.955717E+01   2.626058E+01   2.697118E+01   5.288737E+01   1.476938E+02   2.326080E+02   5.324884E+01   3.164753E+01   1.242600E+01   2.503310E+01   6.542593E+01   1.531752E+02   1.257187E+02   6.013282E+01   9.709133E+01   8.945323E+01   1.043793E+02   9.225060E+01   1.089149E+02   2.710754E+01   8.158559E+01   3.649402E+02   4.350418E+02   4.704783E+02   6.413387E+02   8.720630E+01   1.220179E+02   6.848030E+01   7.388198E+01   2.754709E+01   1.789864E+01   6.368554E+01   1.268324E+02   1.536731E+02   1.080377E+02   1.039472E+02   1.046018E+02   6.614806E+01   2.402014E+01   1.925218E+01   7.682062E+01   6.538876E+01   4.900893E+01   6.779718E+01   3.609564E+01   1.279702E+02   2.205746E+02   1.306192E+02   8.189906E+01   1.582431E+01   1.781847E+01   3.092143E+01   1.592740E+01   2.697293E+01   9.328873E+00   2.814701E+01   2.298807E+01   4.413429E+01   2.129626E+02   1.905251E+02   1.807878E+02   1.705391E+02   8.595792E+01   3.363730E+01   1.907828E+01   1.763490E+01   1.765118E+01   1.264238E+01   1.150356E+01   2.750814E+01   2.940684E+01   4.780223E+01   4.780223E+01   4.760752E+01   8.345081E+01   8.345081E+01   3.109656E+01   1.740344E+01   1.740344E+01   7.708091E+00   7.708091E+00   7.708091E+00   1.027951E+01   1.027951E+01   1.027951E+01   1.685694E+01   1.685694E+01   1.685694E+01   1.685694E+01   1.685694E+01   8.002460E+00   8.002460E+00   8.002460E+00   8.002460E+00   8.002460E+00   1.758855E+01   1.758855E+01   1.758855E+01   1.758855E+01   1.758855E+01   1.758855E+01   1.758855E+01   2.293619E+01   2.293619E+01   2.293619E+01   2.293619E+01   2.293619E+01   2.293619E+01   2.293619E+01   2.293619E+01   2.293619E+01   2.293619E+01   2.228041E+01   2.228041E+01   2.228041E+01   2.228041E+01   2.228041E+01   2.228041E+01   2.228041E+01   2.228041E+01   2.228041E+01   1.007787E+02   1.007787E+02   1.007787E+02   1.007787E+02   1.007787E+02   1.007787E+02   1.007787E+02   5.217466E+01   5.217466E+01   5.217466E+01   5.217466E+01   5.217466E+01   4.760787E+01   4.760787E+01   4.760787E+01   4.760787E+01   7.157127E+01   7.157127E+01   7.157127E+01   7.813907E+01   7.813907E+01   6.576196E+01   6.576196E+01   1.170072E+02   1.170072E+02   2.289307E+02   6.727858E+01   1.315962E+02   1.315962E+02   3.251469E+02   2.464379E+02   2.615312E+02   1.137101E+02   5.828586E+01   3.466789E+01   6.674117E+01   1.168879E+02   4.882611E+01   8.109503E+01   5.718899E+01   1.064478E+02   1.093513E+02   5.104675E+01   1.396345E+02   1.043974E+02   6.799703E+01   1.079293E+02   5.296354E+01   5.253525E+01   1.099987E+02   9.035743E+01   7.793752E+01   4.750993E+01   1.682517E+01   8.869925E+00   3.798564E+01   7.402376E+01   1.211737E+02   1.751931E+02   7.141470E+01   2.420482E+01   2.310270E+01   9.039500E+01   4.176006E+01   1.476589E+02   4.969867E+01   5.280475E+01   7.985664E+01
   5.030006E+01   4.244544E+01   1.171090E+02   1.508520E+02   6.314855E+01   7.987252E+01   3.136520E+01   3.788057E+01   4.995902E+01   6.154622E+01   9.428978E+01   9.411222E+01   1.465922E+02   4.152368E+01   2.586337E+01   4.993334E+00   2.538739E+01   9.828049E+01   4.391952E+01   3.141254E+01   2.814823E+01   4.550314E+01   1.755231E+02   2.030620E+02   1.477980E+02   9.803171E+01   1.404006E+01   4.293758E+01   5.773261E+01   5.272159E+01   1.155710E+02   6.873252E+01   5.497292E+01   5.703825E+01   8.226194E+01   9.577866E+01   1.807792E+02   1.023665E+02   1.200549E+02   3.893005E+02   6.156422E+02   4.346525E+02   3.240302E+02   5.005206E+01   5.685444E+01   5.602110E+01   4.749110E+01   1.119407E+01   4.685221E+01   3.303946E+01   1.134184E+02   1.937604E+02   1.173300E+02   1.605812E+02   6.273678E+01   7.553806E+01   2.351852E+01   3.434995E+01   6.478719E+01   3.787925E+01   4.681266E+01   5.901698E+01   4.430396E+01   1.791871E+02   1.857482E+02   1.415346E+02   1.017948E+02   1.916991E+01   2.275661E+01   2.435509E+01   1.590770E+01   1.730038E+01   2.349253E+01   2.018752E+01   1.672419E+01   5.981895E+01   1.888393E+02   6.066072E+01   1.476950E+02   1.736491E+02   1.506825E+02   6.448055E+01   4.601955E+01   1.150791E+01   2.160565E+01   1.516133E+01   8.803235E+00   2.898664E+01   4.111724E+01   1.712581E+01   1.712581E+01   3.807737E+01   7.855652E+01   7.855652E+01   4.423533E+01   2.412074E+01   2.412074E+01   7.954152E+00   7.954152E+00   7.954152E+00   1.063159E+01   1.063159E+01   1.063159E+01   1.066001E+01   1.066001E+01   1.066001E+01   1.066001E+01   1.066001E+01   7.473113E+00   7.473113E+00   7.473113E+00   7.473113E+00   7.473113E+00   2.761222E+01   2.761222E+01   2.761222E+01   2.761222E+01   2.761222E+01   2.761222E+01   2.761222E+01   3.187009E+01   3.187009E+01   3.187009E+01   3.187009E+01   3.187009E+01   3.187009E+01   3.187009E+01   3.187009E+01   3.187009E+01   3.187009E+01   3.542398E+01   3.542398E+01   3.542398E+01   3.542398E+01   3.542398E+01   3.542398E+01   3.542398E+01   3.542398E+01   3.542398E+01   8.509078E+01   8.509078E+01   8.509078E+01   8.509078E+01   8.509078E+01   8.509078E+01   8.509078E+01   5.377233E+01   5.377233E+01   5.377233E+01   5.377233E+01   5.377233E+01   5.047666E+01   5.047666E+01   5.047666E+01   5.047666E+01   3.742627E+01   3.742627E+01   3.742627E+01   8.383169E+01   8.383169E+01   7.387813E+01   7.387813E+01   2.186642E+02   2.186642E+02   1.485101E+02   7.373389E+01   7.837215E+01   7.837215E+01   3.860868E+02   2.938994E+02   3.176650E+02   1.451924E+02   5.344302E+01   2.416132E+01   3.215457E+01   9.321511E+01   3.726223E+01   8.837291E+01   1.075273E+02   1.044721E+02   6.617868E+01   3.986789E+01   1.239816E+02   5.509823E+01   2.881404E+01   5.440848E+01   4.744578E+01   7.853009E+01   6.984902E+01   1.035343E+02   3.231528E+01   1.340325E+01   1.822253E+01   2.595475E+01   4.471702E+01   7.009636E+01   2.578157E+02   2.300060E+02   2.308944E+01   4.342000E+01   4.160279E+01   5.019873E+01   2.768546E+01   8.030977E+01   5.281650E+01   1.154214E+02   1.219893E+02
   6.717967E+01   1.336019E+02   1.534500E+02   1.006349E+02   9.715783E+01   1.165098E+02   4.887370E+01   5.501196E+01   1.141497E+02   8.273973E+01   2.963200E+02   8.198361E+01   5.600810E+01   5.925123E+01   1.820126E+01   4.358643E+00   7.922536E+00   1.083598E+02   5.661986E+01   2.106430E+01   4.241248E+01   7.398129E+01   1.393894E+02   3.757639E+02   1.519174E+02   1.450579E+02   5.925449E+01   4.477394E+01   3.166039E+01   5.661622E+01   4.631808E+01   3.146940E+01   1.872259E+01   2.035565E+01   1.244576E+02   1.210924E+02   1.074934E+02   5.557181E+01   1.288284E+02   3.423304E+02   1.024410E+03   4.376999E+02   2.411997E+02   1.207212E+02   2.848063E+01   4.886316E+01   6.338133E+01   4.011683E+01   4.726784E+01   1.137817E+02   1.567981E+02   9.302100E+01   3.355000E+02   7.159680E+01   6.651662E+01   8.572917E+01   3.504890E+01   4.304590E+01   7.525787E+01   2.065936E+01   2.453394E+01   7.394535E+01   4.878586E+01   2.825462E+02   2.691834E+02   1.299807E+02   7.604265E+01   6.511301E+01   2.825795E+01   2.071874E+01   1.410354E+01   3.093141E+01   2.428200E+01   1.777900E+01   2.953893E+01   3.601392E+01   1.020301E+02   5.873990E+01   3.020710E+02   2.607858E+02   1.224806E+02   1.172535E+02   5.589834E+01   3.195256E+01   3.520218E+01   2.270372E+01   1.085194E+01   3.830135E+01   2.804834E+01   4.100563E+01   4.100563E+01   7.681624E+01   7.382072E+01   7.382072E+01   7.568809E+01   3.619135E+01   3.619135E+01   1.601049E+01   1.601049E+01   1.601049E+01   1.165289E+01   1.165289E+01   1.165289E+01   7.155720E+00   7.155720E+00   7.155720E+00   7.155720E+00   7.155720E+00   9.150946E+00   9.150946E+00   9.150946E+00   9.150946E+00   9.150946E+00   3.288059E+01   3.288059E+01   3.288059E+01   3.288059E+01   3.288059E+01   3.288059E+01   3.288059E+01   6.103780E+01   6.103780E+01   6.103780E+01   6.103780E+01   6.103780E+01   6.103780E+01   6.103780E+01   6.103780E+01   6.103780E+01   6.103780E+01   1.025698E+02   1.025698E+02   1.025698E+02   1.025698E+02   1.025698E+02   1.025698E+02   1.025698E+02   1.025698E+02   1.025698E+02   6.499554E+01   6.499554E+01   6.499554E+01   6.499554E+01   6.499554E+01   6.499554E+01   6.499554E+01   4.544565E+01   4.544565E+01   4.544565E+01   4.544565E+01   4.544565E+01   3.471994E+01   3.471994E+01   3.471994E+01   3.471994E+01   7.525684E+01   7.525684E+01   7.525684E+01   1.106029E+02   1.106029E+02   7.145316E+01   7.145316E+01   1.034751E+02   1.034751E+02   5.910874E+01   5.398957E+01   8.095408E+01   8.095408E+01   2.515955E+02   1.527696E+02   1.359928E+02   8.447969E+01   3.330038E+01   2.270884E+01   1.810205E+01   6.781693E+01   5.620584E+01   5.997521E+01   1.851845E+02   1.324939E+02   5.833540E+01   7.126804E+01   1.298358E+02   8.679196E+01   9.360999E+01   7.799883E+01   5.115185E+01   9.661040E+01   5.770679E+01   7.198437E+01   1.366122E+01   5.075078E+00   1.060981E+01   5.698992E+01   1.695958E+02   1.444993E+02   2.030149E+02   1.162446E+02   2.575680E+01   4.877692E+01   5.180000E+01   2.925768E+01   5.521801E+01   9.152299E+01   1.138978E+02   9.808251E+01   1.130294E+02
   9.086851E+01   1.556396E+02   6.488317E+01   6.802894E+01   1.178805E+02   3.568196E+01   1.958599E+01   4.015587E+01   7.687254E+01   1.134746E+02   1.269773E+02   4.750525E+01   3.199768E+01   4.024378E+01   2.310917E+01   1.392405E+01   1.749432E+01   5.145117E+01   5.858584E+01   2.361345E+01   4.173138E+01   6.669514E+01   9.371607E+01   2.270105E+02   3.332778E+02   2.362599E+02   6.622195E+01   4.995434E+01   3.869753E+01   4.752312E+01   6.666517E+01   2.281253E+01   3.378409E+01   6.082299E+01   1.278064E+02   1.876529E+02   1.892838E+02   1.102383E+02   1.251766E+02   5.178158E+02   3.545777E+02   3.773990E+02   2.165210E+02   8.104221E+01   3.267752E+01   2.959052E+01   4.822794E+01   3.624927E+01   9.331183E+01   1.377887E+02   1.427853E+02   2.268370E+02   1.598208E+02   5.351758E+01   1.283439E+02   2.477612E+01   6.050788E+01   5.785247E+01   7.529092E+01   1.809687E+01   8.157458E+00   6.961461E+01   1.011026E+02   3.770612E+02   2.974755E+02   1.629288E+02   1.367760E+02   1.194562E+02   5.622784E+01   3.418375E+01   4.179223E+01   3.718979E+01   2.259377E+01   2.262318E+01   4.292937E+01   3.649868E+01   1.458992E+02   8.984495E+01   1.460977E+02   3.570267E+02   2.381163E+02   9.576311E+01   7.337808E+01   2.774059E+01   3.108100E+01   1.641261E+01   1.690014E+01   1.404430E+01   1.805389E+01   1.046607E+02   1.046607E+02   1.376383E+02   1.129394E+02   1.129394E+02   1.258076E+02   1.757061E+01   1.757061E+01   1.268974E+01   1.268974E+01   1.268974E+01   1.836543E+01   1.836543E+01   1.836543E+01   1.519797E+01   1.519797E+01   1.519797E+01   1.519797E+01   1.519797E+01   1.304046E+01   1.304046E+01   1.304046E+01   1.304046E+01   1.304046E+01   6.027971E+01   6.027971E+01   6.027971E+01   6.027971E+01   6.027971E+01   6.027971E+01   6.027971E+01   1.177948E+02   1.177948E+02   1.177948E+02   1.177948E+02   1.177948E+02   1.177948E+02   1.177948E+02   1.177948E+02   1.177948E+02   1.177948E+02   9.230470E+01   9.230470E+01   9.230470E+01   9.230470E+01   9.230470E+01   9.230470E+01   9.230470E+01   9.230470E+01   9.230470E+01   9.018628E+01   9.018628E+01   9.018628E+01   9.018628E+01   9.018628E+01   9.018628E+01   9.018628E+01   1.232231E+02   1.232231E+02   1.232231E+02   1.232231E+02   1.232231E+02   4.839316E+01   4.839316E+01   4.839316E+01   4.839316E+01   3.710062E+01   3.710062E+01   3.710062E+01   7.512785E+01   7.512785E+01   8.773109E+01   8.773109E+01   6.632221E+01   6.632221E+01   5.318337E+01   3.774615E+01   1.054400E+02   1.054400E+02   7.302849E+01   1.348551E+02   1.227087E+02   4.846819E+01   2.610182E+01   2.075126E+01   1.148139E+01   3.038636E+01   5.675434E+01   5.572483E+01   7.689227E+01   1.526859E+02   1.400299E+02   1.017716E+02   1.658796E+02   1.239850E+02   9.825690E+01   5.582087E+01   4.917694E+01   1.164758E+02   8.429754E+01   4.333354E+01   2.445735E+01   1.865214E+01   2.710546E+01   5.937485E+01   1.146460E+02   1.125620E+02   2.058217E+02   6.751644E+01   2.980946E+01   5.563332E+01   5.484045E+01   3.671866E+01   6.125908E+01   1.153758E+02   8.864983E+01   1.111200E+02   2.962514E+01
   1.030605E+02   4.039809E+01   6.870450E+01   5.090218E+01   1.855894E+01   1.880415E+01   1.984751E+01   3.162376E+01   8.212486E+01   8.666383E+01   7.958925E+01   4.574017E+01   1.702930E+01   6.003020E+01   1.976185E+01   2.261285E+01   2.110930E+01   3.682555E+01   5.097447E+01   1.302790E+01   3.106456E+01   5.355798E+01   7.267680E+01   1.871202E+02   1.881173E+02   1.349870E+02   6.961579E+01   2.688054E+01   2.115710E+01   6.108052E+01   3.389964E+01   3.272900E+01   4.931524E+01   1.148952E+02   1.577248E+02   1.021897E+02   1.295573E+02   8.843886E+01   1.286287E+02   3.691815E+02   1.027595E+02   3.112964E+02   2.234495E+02   4.905980E+01   6.499297E+01   4.496631E+01   4.003263E+01   4.427220E+01   1.066425E+02   7.760999E+01   1.093336E+02   9.373723E+01   5.484470E+01   4.064162E+01   8.352357E+01   2.570315E+01   3.093205E+01   7.944718E+01   4.128185E+01   2.165667E+01   8.381318E+00   4.219390E+01   8.053540E+01   2.367479E+02   1.610633E+02   2.157278E+02   1.562297E+02   2.366746E+02   9.177682E+01   8.281207E+01   2.950381E+01   1.672167E+01   1.744476E+01   1.418269E+01   2.212743E+01   5.840916E+01   1.188832E+02   7.249218E+01   7.682819E+01   1.715760E+02   1.943893E+02   1.537173E+02   6.281551E+01   5.595472E+01   3.799273E+01   2.453769E+01   2.273852E+01   1.919479E+01   2.028243E+01   5.942712E+01   5.942712E+01   2.661856E+02   1.318286E+02   1.318286E+02   1.273561E+02   5.180806E+01   5.180806E+01   3.862859E+01   3.862859E+01   3.862859E+01   3.712886E+01   3.712886E+01   3.712886E+01   2.776745E+01   2.776745E+01   2.776745E+01   2.776745E+01   2.776745E+01   2.592357E+01   2.592357E+01   2.592357E+01   2.592357E+01   2.592357E+01   3.624637E+01   3.624637E+01   3.624637E+01   3.624637E+01   3.624637E+01   3.624637E+01   3.624637E+01   9.050318E+01   9.050318E+01   9.050318E+01   9.050318E+01   9.050318E+01   9.050318E+01   9.050318E+01   9.050318E+01   9.050318E+01   9.050318E+01   1.329781E+02   1.329781E+02   1.329781E+02   1.329781E+02   1.329781E+02   1.329781E+02   1.329781E+02   1.329781E+02   1.329781E+02   8.499371E+01   8.499371E+01   8.499371E+01   8.499371E+01   8.499371E+01   8.499371E+01   8.499371E+01   1.030081E+02   1.030081E+02   1.030081E+02   1.030081E+02   1.030081E+02   6.388956E+01   6.388956E+01   6.388956E+01   6.388956E+01   3.594036E+01   3.594036E+01   3.594036E+01   2.365211E+01   2.365211E+01   5.361914E+01   5.361914E+01   5.963176E+01   5.963176E+01   9.265777E+01   9.023773E+01   1.386263E+02   1.386263E+02   8.251151E+01   8.921956E+01   1.060358E+02   8.945479E+01   1.871650E+01   1.760573E+01   1.094003E+01   8.425928E+00   4.337874E+01   4.873204E+01   7.073695E+01   1.247611E+02   7.213857E+01   1.427160E+02   1.541532E+02   1.372259E+02   1.306561E+02   6.786475E+01   8.710531E+01   2.154062E+02   9.349731E+01   7.651939E+01   2.840481E+01   1.605562E+01   2.372822E+01   3.381746E+01   8.396519E+01   8.620966E+01   1.045741E+02   4.449625E+01   3.494354E+01   5.217817E+01   3.065623E+01   3.182695E+01   5.892146E+01   1.863372E+02   1.030139E+02   1.809155E+02   7.479628E+01
   1.473540E+02   2.729222E+01   4.347026E+01   3.356394E+01   1.483487E+01   2.772223E+01   1.768117E+01   3.927358E+01   7.728072E+01   7.268209E+01   1.844950E+01   9.272030E+01   2.757915E+01   2.834540E+01   4.150459E+01   7.267806E+01   1.410036E+01   3.417789E+01   3.149945E+01   1.187218E+01   2.627764E+01   7.398882E+01   9.471323E+01   3.398861E+02   2.430197E+02   6.656734E+01   4.301999E+01   1.805160E+01   2.058188E+01   8.555531E+01   3.089258E+01   5.501197E+01   5.569418E+01   9.259682E+01   2.326368E+02   1.177314E+02   9.377168E+01   1.315173E+02   1.939045E+02   3.044120E+02   2.336490E+02   1.099641E+02   1.536261E+02   1.196196E+02   4.367722E+01   3.875064E+01   1.936567E+01   3.690852E+01   1.197807E+02   1.974180E+01   3.239919E+01   2.773594E+01   2.077682E+01   4.299377E+01   4.392873E+01   1.481253E+01   1.794039E+01   9.558383E+01   1.701170E+01   1.568900E+01   1.088385E+01   3.171063E+01   9.123370E+01   1.852405E+02   2.815028E+02   1.480549E+02   1.292755E+02   6.445298E+01   1.214784E+02   1.101963E+02   3.985993E+01   1.355421E+01   2.094680E+01   1.960022E+01   3.114437E+01   6.871992E+01   7.649835E+01   9.950471E+01   6.377426E+01   9.537030E+01   1.963818E+02   1.973118E+02   4.536536E+01   2.572239E+01   3.222841E+01   2.818765E+01   3.865613E+01   6.412814E+01   4.890833E+01   6.800291E+01   6.800291E+01   2.451564E+02   2.303472E+02   2.303472E+02   2.219740E+02   8.723682E+01   8.723682E+01   4.475151E+01   4.475151E+01   4.475151E+01   1.950156E+01   1.950156E+01   1.950156E+01   2.261925E+01   2.261925E+01   2.261925E+01   2.261925E+01   2.261925E+01   3.134715E+01   3.134715E+01   3.134715E+01   3.134715E+01   3.134715E+01   4.351728E+01   4.351728E+01   4.351728E+01   4.351728E+01   4.351728E+01   4.351728E+01   4.351728E+01   1.342586E+02   1.342586E+02   1.342586E+02   1.342586E+02   1.342586E+02   1.342586E+02   1.342586E+02   1.342586E+02   1.342586E+02   1.342586E+02   2.949380E+02   2.949380E+02   2.949380E+02   2.949380E+02   2.949380E+02   2.949380E+02   2.949380E+02   2.949380E+02   2.949380E+02   1.468307E+02   1.468307E+02   1.468307E+02   1.468307E+02   1.468307E+02   1.468307E+02   1.468307E+02   2.544719E+01   2.544719E+01   2.544719E+01   2.544719E+01   2.544719E+01   4.102528E+01   4.102528E+01   4.102528E+01   4.102528E+01   1.921450E+01   1.921450E+01   1.921450E+01   2.026667E+01   2.026667E+01   4.313741E+01   4.313741E+01   8.877992E+01   8.877992E+01   1.134028E+02   1.578739E+02   1.490491E+02   1.490491E+02   1.742588E+02   2.183295E+02   1.128514E+02   1.061797E+02   4.359045E+01   2.286269E+01   7.516735E+00   8.315387E+00   5.529150E+01   3.429943E+01   1.539873E+02   1.062850E+02   7.882050E+01   1.415144E+02   1.593143E+02   1.657271E+02   1.002546E+02   9.855829E+01   1.233531E+02   2.511426E+02   1.117851E+02   1.193585E+02   6.828241E+01   5.575808E+01   3.080380E+01   2.776037E+01   1.222037E+02   8.121111E+01   4.691071E+01   5.772254E+01   5.985807E+01   4.175890E+01   1.645844E+01   3.624091E+01   8.231873E+01   9.736776E+01   7.953432E+01   1.166754E+02   1.156264E+02
   5.339989E+01   2.381526E+01   2.483558E+01   2.412538E+01   1.380615E+01   2.379603E+01   1.493170E+01   4.853708E+01   1.612620E+02   8.485613E+01   2.223147E+01   4.271551E+01   3.433136E+01   3.960147E+01   4.701122E+01   9.065850E+01   1.925830E+01   3.951508E+01   3.567660E+01   1.455029E+01   2.903421E+01   6.647410E+01   1.338285E+02   1.452173E+02   1.046245E+02   3.698152E+01   1.038655E+02   2.322754E+01   1.430309E+01   5.193929E+01   3.390131E+01   6.420273E+01   1.153715E+02   3.614197E+02   5.568601E+02   3.231701E+02   6.665633E+01   8.513330E+01   1.340700E+02   2.796562E+02   1.332913E+02   7.465762E+01   2.013080E+02   1.394291E+02   8.145608E+01   5.147413E+01   2.842013E+01   2.782228E+01   7.676343E+01   4.449909E+01   9.624929E+01   4.159423E+01   1.630698E+01   4.422840E+01   4.779305E+01   3.389465E+01   2.053907E+01   4.064337E+01   2.810700E+01   1.485021E+01   1.240156E+01   1.293940E+01   5.898336E+01   1.038135E+02   3.131121E+02   1.085833E+02   1.784826E+02   1.809681E+02   1.320792E+02   1.303882E+02   4.816422E+01   1.523471E+01   2.149530E+01   3.086155E+01   2.330172E+01   4.770723E+01   7.409163E+01   8.823528E+01   2.904196E+01   4.134822E+01   1.208249E+02   4.835431E+01   2.812943E+01   2.961674E+01   8.486684E+01   7.169587E+01   4.489380E+01   9.879407E+01   1.122915E+02   1.018224E+02   1.018224E+02   2.219557E+02   2.850169E+02   2.850169E+02   2.635820E+02   9.612727E+01   9.612727E+01   6.713995E+01   6.713995E+01   6.713995E+01   9.202622E+01   9.202622E+01   9.202622E+01   5.709263E+01   5.709263E+01   5.709263E+01   5.709263E+01   5.709263E+01   5.322906E+01   5.322906E+01   5.322906E+01   5.322906E+01   5.322906E+01   5.618075E+01   5.618075E+01   5.618075E+01   5.618075E+01   5.618075E+01   5.618075E+01   5.618075E+01   1.837661E+02   1.837661E+02   1.837661E+02   1.837661E+02   1.837661E+02   1.837661E+02   1.837661E+02   1.837661E+02   1.837661E+02   1.837661E+02   1.553070E+02   1.553070E+02   1.553070E+02   1.553070E+02   1.553070E+02   1.553070E+02   1.553070E+02   1.553070E+02   1.553070E+02   1.030122E+02   1.030122E+02   1.030122E+02   1.030122E+02   1.030122E+02   1.030122E+02   1.030122E+02   2.115829E+01   2.115829E+01   2.115829E+01   2.115829E+01   2.115829E+01   2.270137E+01   2.270137E+01   2.270137E+01   2.270137E+01   2.757337E+01   2.757337E+01   2.757337E+01   1.476355E+01   1.476355E+01   2.846268E+01   2.846268E+01   7.899741E+01   7.899741E+01   1.916994E+02   2.228402E+02   3.653248E+02   3.653248E+02   1.656993E+02   2.521814E+02   5.973140E+01   8.397955E+01   2.091974E+01   8.254577E+00   9.397908E+00   2.643185E+01   3.700671E+01   6.963841E+01   9.090439E+01   1.352706E+02   1.250527E+02   1.458925E+02   7.499239E+01   8.594142E+01   1.376742E+02   1.479462E+02   1.055364E+02   1.432753E+02   1.331538E+02   1.448429E+02   1.094142E+02   6.336705E+01   1.866231E+01   2.866988E+01   5.626603E+01   1.000611E+02   4.864912E+01   6.120108E+01   3.190692E+01   8.722091E+01   3.263560E+01   8.506322E+01   5.982710E+01   8.160837E+01   5.279896E+01   5.628461E+01   9.414040E+01
   6.815760E+01   1.234981E+01   1.543165E+01   2.514585E+01   1.977223E+01   4.631245E+01   1.985924E+01   6.557973E+01   1.355481E+02   8.745046E+01   9.121388E+00   1.266453E+01   2.446183E+01   1.408979E+02   5.541357E+01   1.089698E+02   4.035643E+01   6.554602E+01   3.613578E+01   3.855719E+01   1.238013E+02   5.237880E+01   1.094852E+02   1.040562E+02   3.162810E+01   3.423717E+01   6.417906E+01   2.319270E+01   1.332131E+01   3.335931E+01   3.916349E+01   6.521995E+01   1.476967E+02   4.895672E+02   5.559626E+02   7.511788E+02   7.420257E+01   9.330029E+01   1.075259E+02   1.083381E+02   1.515532E+02   1.303690E+02   1.416628E+02   2.979005E+02   1.366492E+02   3.027518E+01   1.800182E+01   2.434058E+01   3.505806E+01   1.101847E+02   5.736317E+01   1.461009E+01   6.491822E+00   1.791095E+01   2.508408E+01   4.486966E+01   3.043362E+01   2.612563E+01   2.290454E+01   1.828577E+01   7.692617E+00   9.757617E+00   2.204853E+01   1.114366E+02   1.282204E+02   8.984726E+01   3.356729E+02   2.329873E+02   1.198762E+02   1.105164E+02   2.975953E+01   2.125018E+01   1.824888E+01   1.418632E+01   1.810919E+01   5.397026E+01   3.756422E+01   5.657904E+01   5.951986E+01   3.237516E+01   9.658911E+01   4.313885E+01   3.002802E+01   5.421285E+01   6.174516E+01   1.226026E+02   8.146566E+01   7.153130E+01   1.120829E+02   1.000053E+02   1.000053E+02   1.407701E+02   2.972878E+02   2.972878E+02   2.540829E+02   1.550043E+02   1.550043E+02   1.344620E+02   1.344620E+02   1.344620E+02   1.581936E+02   1.581936E+02   1.581936E+02   8.394558E+01   8.394558E+01   8.394558E+01   8.394558E+01   8.394558E+01   2.741689E+01   2.741689E+01   2.741689E+01   2.741689E+01   2.741689E+01   4.845565E+01   4.845565E+01   4.845565E+01   4.845565E+01   4.845565E+01   4.845565E+01   4.845565E+01   1.234381E+02   1.234381E+02   1.234381E+02   1.234381E+02   1.234381E+02   1.234381E+02   1.234381E+02   1.234381E+02   1.234381E+02   1.234381E+02   7.418907E+01   7.418907E+01   7.418907E+01   7.418907E+01   7.418907E+01   7.418907E+01   7.418907E+01   7.418907E+01   7.418907E+01   7.977389E+01   7.977389E+01   7.977389E+01   7.977389E+01   7.977389E+01   7.977389E+01   7.977389E+01   5.183387E+01   5.183387E+01   5.183387E+01   5.183387E+01   5.183387E+01   1.961110E+01   1.961110E+01   1.961110E+01   1.961110E+01   3.058088E+01   3.058088E+01   3.058088E+01   1.581188E+01   1.581188E+01   3.303891E+01   3.303891E+01   3.605529E+01   3.605529E+01   1.761011E+02   1.433761E+02   2.409772E+02   2.409772E+02   3.086754E+02   1.142388E+02   3.091975E+01   6.849053E+01   2.108190E+01   2.344532E+01   2.432710E+01   3.901230E+01   4.185309E+01   7.934784E+01   9.134078E+01   8.138369E+01   8.095564E+01   1.304625E+02   8.506953E+01   1.777107E+02   1.076025E+02   2.172564E+02   1.770034E+02   1.548846E+02   1.154191E+02   2.050080E+02   7.700401E+01   3.492003E+01   2.927656E+01   4.310754E+01   8.699348E+01   4.947356E+01   2.460548E+01   4.769748E+01   7.608195E+01   6.125534E+01   5.084079E+01   5.879986E+01   4.631571E+01   1.329024E+02   7.683430E+01   5.927013E+01   1.087513E+02