# LPF package for  MODFLOW-2005, generated by Flopy.
        53    -1E+30         0  
         1
         0
   0.000000E+00
         0
         0
INTERNAL               1 (207E15.6) -1 #hk layer 1                    
   3.238647E+01   4.530310E+01   8.840993E+01   1.226530E+02   1.627906E+02   1.413846E+02   7.237900E+01   1.236522E+02   5.707154E+02   6.630798E+01   5.241805E+01   6.111498E+01   8.705896E+01   4.305315E+01   5.453973E+01   8.326537E+01   3.912442E+01   1.991730E+01   7.740662E+01   7.078374E+01   1.803162E+02   9.288699E+01   1.637070E+02   1.642098E+02   7.122875E+01   1.052036E+02   4.056099E+01   1.597003E+01   1.040783E+01   1.034762E+01   1.029486E+01   8.533990E+00   1.411554E+01   3.545753E+01   1.389744E+02   2.392393E+02   1.102651E+02   1.692108E+01   1.244025E+01   3.213760E+01   3.349738E+01   1.638541E+01   3.044532E+01   1.651459E+01   6.999235E+00   1.459127E+01   2.179592E+01   1.707786E+01   8.424095E+00   1.302549E+01   1.909635E+01   4.389452E+00   4.237625E+00   3.285557E+00   6.751389E+00   5.257045E+01   2.076441E+02   2.969349E+02   1.919196E+02   6.090731E+01   5.874374E+01   4.353753E+01   4.825078E+01   8.462601E+01   4.944306E+01   2.744512E+02   7.294122E+01   4.575907E+01   3.114969E+01   5.957027E+01   8.876138E+01   9.010284E+01   5.402531E+01   4.157833E+01   4.262900E+01   7.889983E+01   1.481361E+02   1.281979E+02   8.059934E+01   9.238977E+01   1.237225E+02   1.590195E+02   8.179988E+01   5.540331E+01   3.677970E+01   2.091451E+01   4.243512E+01   3.635605E+01   5.625851E+01   1.741187E+02   1.741187E+02   6.405999E+01   5.385540E+01   5.385540E+01   5.912752E+01   8.280498E+01   8.280498E+01   7.749067E+01   7.749067E+01   7.749067E+01   1.119790E+02   1.119790E+02   1.119790E+02   1.161086E+02   1.161086E+02   1.161086E+02   1.161086E+02   1.161086E+02   5.901267E+01   5.901267E+01   5.901267E+01   5.901267E+01   5.901267E+01   3.151464E+01   3.151464E+01   3.151464E+01   3.151464E+01   3.151464E+01   3.151464E+01   3.151464E+01   2.969961E+01   2.969961E+01   2.969961E+01   2.969961E+01   2.969961E+01   2.969961E+01   2.969961E+01   2.969961E+01   2.969961E+01   2.969961E+01   2.992666E+01   2.992666E+01   2.992666E+01   2.992666E+01   2.992666E+01   2.992666E+01   2.992666E+01   2.992666E+01   2.992666E+01   1.550718E+01   1.550718E+01   1.550718E+01   1.550718E+01   1.550718E+01   1.550718E+01   1.550718E+01   2.133703E+01   2.133703E+01   2.133703E+01   2.133703E+01   2.133703E+01   2.573017E+01   2.573017E+01   2.573017E+01   2.573017E+01   5.085670E+01   5.085670E+01   5.085670E+01   3.016286E+01   3.016286E+01   3.234937E+01   3.234937E+01   6.317333E+01   6.317333E+01   4.380225E+01   5.663794E+01   5.861553E+01   5.861553E+01   9.630057E+01   1.280940E+02   5.919650E+01   4.421224E+01   3.835211E+01   2.230822E+01   1.357624E+01   4.824938E+00   9.264034E+00   1.387280E+01   1.150989E+01   1.434983E+01   2.559072E+01   8.331036E+01   1.694937E+02   5.283090E+01   1.260389E+01   4.412755E+00   9.171068E+00   3.048504E+01   3.173041E+01   4.485018E+01   4.506489E+01   4.234623E+01   7.233694E+01   1.897007E+02   2.062777E+02   6.850887E+01   1.364871E+02   1.086552E+02   6.260064E+01   8.576665E+01   5.785930E+01   1.167477E+02   1.089464E+02   7.453925E+01   2.861927E+01   5.127377E+01   8.016882E+01
   3.749157E+01   3.121843E+01   7.471882E+01   1.723015E+02   1.452018E+02   4.344487E+01   1.118990E+02   2.528936E+02   3.086379E+02   5.137932E+01   6.794009E+01   6.005589E+01   5.816321E+01   2.291718E+01   6.444981E+01   1.027456E+02   3.812700E+01   1.951994E+01   3.092873E+01   1.101475E+02   1.917301E+02   1.078630E+02   1.074095E+02   3.797214E+02   1.125888E+02   9.262080E+01   5.741057E+01   1.047260E+01   9.415288E+00   1.593048E+01   1.358199E+01   2.139582E+01   1.114453E+01   2.820790E+01   6.114233E+01   2.767152E+02   8.705496E+01   2.690920E+01   2.226249E+01   3.379885E+01   1.955212E+01   2.229163E+01   3.023903E+01   1.839533E+01   1.486718E+01   2.555977E+01   9.776088E+00   1.002822E+01   4.623598E+00   4.369448E+00   9.910812E+00   2.892304E+00   3.854153E+00   7.802238E+00   1.176923E+01   5.760306E+01   1.931164E+02   4.673295E+02   2.258365E+02   5.546324E+01   4.457748E+01   1.336399E+01   5.675266E+01   7.123457E+01   7.634219E+01   1.089342E+02   6.242896E+01   6.436633E+01   3.235048E+01   4.193959E+01   1.546984E+02   5.618936E+01   6.088261E+01   8.355142E+01   6.083204E+01   6.942772E+01   9.398343E+01   5.261489E+01   1.066420E+02   5.445716E+01   1.743054E+02   9.455765E+01   1.457949E+02   1.363363E+02   1.275830E+02   6.453686E+01   6.379529E+01   2.785056E+01   4.720113E+01   1.359926E+02   1.359926E+02   8.335735E+01   1.030000E+02   1.030000E+02   1.044457E+02   1.063409E+02   1.063409E+02   7.273300E+01   7.273300E+01   7.273300E+01   4.747139E+01   4.747139E+01   4.747139E+01   6.176199E+01   6.176199E+01   6.176199E+01   6.176199E+01   6.176199E+01   6.451057E+01   6.451057E+01   6.451057E+01   6.451057E+01   6.451057E+01   2.674677E+01   2.674677E+01   2.674677E+01   2.674677E+01   2.674677E+01   2.674677E+01   2.674677E+01   3.019009E+01   3.019009E+01   3.019009E+01   3.019009E+01   3.019009E+01   3.019009E+01   3.019009E+01   3.019009E+01   3.019009E+01   3.019009E+01   2.445210E+01   2.445210E+01   2.445210E+01   2.445210E+01   2.445210E+01   2.445210E+01   2.445210E+01   2.445210E+01   2.445210E+01   1.774109E+01   1.774109E+01   1.774109E+01   1.774109E+01   1.774109E+01   1.774109E+01   1.774109E+01   1.756671E+01   1.756671E+01   1.756671E+01   1.756671E+01   1.756671E+01   4.906412E+01   4.906412E+01   4.906412E+01   4.906412E+01   6.543629E+01   6.543629E+01   6.543629E+01   7.343440E+01   7.343440E+01   3.941878E+01   3.941878E+01   4.881151E+01   4.881151E+01   3.684187E+01   3.555082E+01   4.637241E+01   4.637241E+01   7.435783E+01   4.551414E+02   1.820142E+02   5.364306E+01   2.813255E+01   1.434809E+01   2.189249E+01   8.394297E+00   2.052448E+01   2.829985E+01   1.688565E+01   1.453100E+01   3.263440E+01   5.076396E+01   4.763973E+01   4.262582E+01   2.430838E+01   6.022687E+00   3.124411E+01   3.654301E+01   4.451480E+01   1.036376E+02   1.418756E+02   1.351567E+02   9.994974E+01   9.623702E+01   1.207507E+02   1.407005E+02   6.525518E+01   1.324243E+02   5.519887E+01   9.739980E+01   3.696911E+01   9.441299E+01   7.833408E+01   5.510353E+01   3.717032E+01   4.384578E+01   2.486880E+01
   3.015978E+01   5.572880E+01   6.147484E+01   1.518568E+02   2.532358E+02   5.125424E+01   6.765150E+01   2.022973E+02   2.010550E+02   6.755729E+01   2.727044E+01   2.423793E+01   3.973143E+01   2.582331E+01   5.516772E+01   8.403036E+01   6.611733E+01   2.267800E+01   2.523358E+01   6.999804E+01   1.312970E+02   9.945828E+01   9.248705E+01   2.656970E+02   7.242405E+01   9.813500E+01   3.663192E+01   9.378350E+00   1.180338E+01   4.616269E+01   2.136451E+01   1.446573E+01   1.352373E+01   1.590074E+01   5.301826E+01   1.439805E+02   7.854892E+01   2.921362E+01   1.945385E+01   1.789193E+01   2.141769E+01   3.987977E+01   6.780331E+01   3.107166E+01   2.295963E+01   4.744287E+01   1.635155E+01   9.155349E+00   7.796726E+00   8.447206E+00   1.188883E+01   5.912590E+00   1.282361E+01   8.201174E+00   1.063299E+01   4.617902E+01   3.251071E+02   3.855396E+02   1.160764E+02   9.019489E+01   6.060977E+01   2.472394E+01   5.892924E+01   6.397353E+01   6.591647E+01   4.707336E+01   2.863514E+01   7.174712E+01   2.756292E+01   9.594377E+01   1.459030E+02   1.433956E+02   8.493235E+01   1.028428E+02   3.591508E+01   4.228294E+01   4.148876E+01   6.878395E+01   9.838965E+01   6.180486E+01   8.408207E+01   1.242871E+02   3.512106E+02   1.952597E+02   1.894338E+02   1.772226E+02   8.419605E+01   2.283726E+01   6.046593E+01   1.030590E+02   1.030590E+02   1.867667E+02   1.272211E+02   1.272211E+02   7.304500E+01   6.636503E+01   6.636503E+01   4.563596E+01   4.563596E+01   4.563596E+01   4.904324E+01   4.904324E+01   4.904324E+01   7.631145E+01   7.631145E+01   7.631145E+01   7.631145E+01   7.631145E+01   6.607021E+01   6.607021E+01   6.607021E+01   6.607021E+01   6.607021E+01   3.568124E+01   3.568124E+01   3.568124E+01   3.568124E+01   3.568124E+01   3.568124E+01   3.568124E+01   2.896549E+01   2.896549E+01   2.896549E+01   2.896549E+01   2.896549E+01   2.896549E+01   2.896549E+01   2.896549E+01   2.896549E+01   2.896549E+01   2.261399E+01   2.261399E+01   2.261399E+01   2.261399E+01   2.261399E+01   2.261399E+01   2.261399E+01   2.261399E+01   2.261399E+01   1.793324E+01   1.793324E+01   1.793324E+01   1.793324E+01   1.793324E+01   1.793324E+01   1.793324E+01   8.877450E+00   8.877450E+00   8.877450E+00   8.877450E+00   8.877450E+00   3.016679E+01   3.016679E+01   3.016679E+01   3.016679E+01   7.612762E+01   7.612762E+01   7.612762E+01   1.133946E+02   1.133946E+02   3.354367E+01   3.354367E+01   3.141742E+01   3.141742E+01   4.603842E+01   2.807989E+01   4.647269E+01   4.647269E+01   2.928095E+01   1.301836E+02   1.290688E+02   5.266291E+01   1.376465E+01   1.610570E+01   2.124650E+01   2.475176E+01   1.612028E+01   3.564471E+01   2.372018E+01   2.779123E+01   1.373013E+01   4.827947E+01   4.732797E+01   6.344271E+01   2.624627E+01   1.217755E+01   6.284530E+01   5.044542E+01   3.872509E+01   1.130372E+02   1.197827E+02   9.489192E+01   7.544852E+01   3.106481E+01   1.001109E+02   1.110310E+02   4.744812E+01   1.423856E+02   8.231814E+01   9.089244E+01   4.052936E+01   4.006292E+01   6.299102E+01   5.927744E+01   3.822585E+01   5.447184E+01   1.771547E+01
   6.501879E+01   7.168972E+01   1.028412E+02   1.013289E+02   2.088519E+02   5.198116E+01   7.965380E+01   1.958163E+02   1.112253E+02   1.401124E+02   2.395401E+01   1.174075E+01   1.389027E+01   3.216257E+01   3.787777E+01   4.320057E+01   4.852464E+01   2.517702E+01   5.289013E+01   7.522898E+01   1.685793E+02   2.152549E+02   1.826505E+02   3.005502E+02   5.217358E+01   1.355311E+02   6.929986E+01   1.554331E+01   2.236209E+01   6.675648E+01   3.787149E+01   9.717976E+00   1.139335E+01   3.373294E+01   1.252272E+02   2.409486E+02   1.604985E+02   4.166545E+01   2.020070E+01   1.486946E+01   4.010864E+01   9.610978E+01   7.583049E+01   6.121537E+01   1.461882E+01   3.056516E+01   2.039860E+01   1.658536E+01   1.388845E+01   9.203205E+00   1.199481E+01   1.692375E+01   2.266103E+01   9.852786E+00   9.566524E+00   5.863467E+01   3.395960E+02   4.326676E+02   1.629290E+02   8.872146E+01   5.438088E+01   3.348990E+01   7.452063E+01   1.053924E+02   3.543521E+01   2.619513E+01   2.403563E+01   4.967175E+01   8.059374E+01   5.821392E+01   2.366737E+02   1.956432E+02   5.191690E+01   6.479935E+01   4.564660E+01   2.942283E+01   3.371988E+01   9.410144E+01   9.193293E+01   7.439633E+01   6.654616E+01   1.407077E+02   5.101471E+02   5.482365E+02   2.326863E+02   1.542303E+02   3.095212E+01   3.300183E+01   5.125821E+01   2.973680E+02   2.973680E+02   2.183405E+02   1.426388E+02   1.426388E+02   4.055905E+01   4.622440E+01   4.622440E+01   2.289076E+01   2.289076E+01   2.289076E+01   2.549007E+01   2.549007E+01   2.549007E+01   6.774016E+01   6.774016E+01   6.774016E+01   6.774016E+01   6.774016E+01   4.969332E+01   4.969332E+01   4.969332E+01   4.969332E+01   4.969332E+01   4.730377E+01   4.730377E+01   4.730377E+01   4.730377E+01   4.730377E+01   4.730377E+01   4.730377E+01   2.826659E+01   2.826659E+01   2.826659E+01   2.826659E+01   2.826659E+01   2.826659E+01   2.826659E+01   2.826659E+01   2.826659E+01   2.826659E+01   1.339234E+01   1.339234E+01   1.339234E+01   1.339234E+01   1.339234E+01   1.339234E+01   1.339234E+01   1.339234E+01   1.339234E+01   9.320668E+00   9.320668E+00   9.320668E+00   9.320668E+00   9.320668E+00   9.320668E+00   9.320668E+00   1.442680E+01   1.442680E+01   1.442680E+01   1.442680E+01   1.442680E+01   2.683428E+01   2.683428E+01   2.683428E+01   2.683428E+01   1.122337E+02   1.122337E+02   1.122337E+02   1.122587E+02   1.122587E+02   3.932485E+01   3.932485E+01   2.058990E+01   2.058990E+01   2.829234E+01   1.333584E+01   3.174922E+01   3.174922E+01   1.254592E+02   1.267713E+02   1.396448E+02   2.784487E+01   1.566650E+01   2.417361E+01   1.949605E+01   2.939609E+01   1.995497E+01   3.785954E+01   2.223701E+01   1.029411E+01   1.789110E+01   4.823724E+01   3.446909E+01   2.079828E+02   4.090049E+01   1.584282E+01   8.002455E+01   1.067775E+02   4.399544E+01   1.005555E+02   2.733778E+02   9.210072E+01   5.485252E+01   3.954254E+01   1.201629E+02   1.020717E+02   2.719430E+01   1.462711E+02   6.989542E+01   9.268043E+01   3.680503E+01   7.522211E+01   4.990370E+01   5.735256E+01   3.005340E+01   2.906735E+01   1.366522E+01
   4.824896E+01   4.971970E+01   4.946004E+01   6.401481E+01   8.045943E+01   3.745921E+01   6.748102E+01   9.035078E+01   6.884373E+01   6.274558E+01   5.470509E+01   2.919264E+01   2.374715E+01   2.345008E+01   1.524284E+01   5.764376E+01   6.546724E+01   6.553223E+01   1.029728E+02   1.333807E+02   1.701087E+02   1.641796E+02   1.778460E+02   2.087950E+02   9.788367E+01   2.546702E+02   5.864594E+01   3.921149E+01   3.958104E+01   6.916733E+01   3.668359E+01   1.049289E+01   1.050335E+01   2.592293E+01   5.391923E+01   1.189525E+02   1.515557E+02   5.062169E+01   3.663317E+01   1.598743E+01   8.749865E+01   1.312102E+02   7.580121E+01   1.493251E+02   4.922011E+01   3.953197E+01   2.965721E+01   2.263627E+01   2.700448E+01   8.543382E+00   8.984340E+00   2.917295E+01   1.366758E+01   9.293711E+00   3.197993E+01   6.812085E+01   1.910133E+02   1.312032E+02   1.604012E+02   9.191888E+01   8.164546E+01   6.066872E+01   4.101858E+01   7.005861E+01   2.403797E+01   1.783307E+01   4.104504E+01   3.416775E+01   6.888644E+01   7.738206E+01   1.019781E+02   1.052233E+02   3.643202E+01   3.784623E+01   4.088737E+01   4.518589E+01   7.763023E+01   5.184007E+01   5.233998E+01   8.490759E+01   6.469714E+01   3.226798E+02   5.638385E+02   8.861013E+02   1.036060E+02   2.492836E+02   4.590436E+01   2.564710E+01   4.993749E+01   1.612990E+02   1.612990E+02   1.207168E+02   1.153928E+02   1.153928E+02   7.620038E+01   1.025105E+02   1.025105E+02   3.880622E+01   3.880622E+01   3.880622E+01   2.129014E+01   2.129014E+01   2.129014E+01   1.062652E+02   1.062652E+02   1.062652E+02   1.062652E+02   1.062652E+02   7.874865E+01   7.874865E+01   7.874865E+01   7.874865E+01   7.874865E+01   3.855564E+01   3.855564E+01   3.855564E+01   3.855564E+01   3.855564E+01   3.855564E+01   3.855564E+01   2.566794E+01   2.566794E+01   2.566794E+01   2.566794E+01   2.566794E+01   2.566794E+01   2.566794E+01   2.566794E+01   2.566794E+01   2.566794E+01   5.310692E+01   5.310692E+01   5.310692E+01   5.310692E+01   5.310692E+01   5.310692E+01   5.310692E+01   5.310692E+01   5.310692E+01   5.460920E+00   5.460920E+00   5.460920E+00   5.460920E+00   5.460920E+00   5.460920E+00   5.460920E+00   1.415882E+01   1.415882E+01   1.415882E+01   1.415882E+01   1.415882E+01   2.966173E+01   2.966173E+01   2.966173E+01   2.966173E+01   4.840662E+01   4.840662E+01   4.840662E+01   1.216399E+02   1.216399E+02   5.294209E+01   5.294209E+01   4.298722E+01   4.298722E+01   7.779394E+01   2.175689E+01   1.091688E+02   1.091688E+02   1.634342E+02   1.030494E+02   6.401382E+01   2.055876E+01   9.097971E+00   1.245365E+01   4.661742E+01   2.876390E+01   2.709168E+01   5.013067E+01   4.441634E+01   2.024960E+01   2.002195E+01   5.800483E+01   1.067534E+02   1.328956E+02   6.307785E+01   4.386018E+01   9.937183E+01   1.658235E+02   2.268537E+01   6.341983E+01   7.968473E+01   3.824112E+01   4.323570E+01   2.634323E+01   4.578330E+01   1.032574E+02   5.280315E+01   4.491868E+01   4.808805E+01   6.637151E+01   6.842997E+01   4.970102E+01   4.395724E+01   3.509094E+01   1.510807E+01   3.714355E+01   1.383028E+01
   3.227640E+01   6.280156E+01   4.715604E+01   2.665333E+01   3.468430E+01   3.167645E+01   8.186482E+01   1.025913E+02   4.818210E+01   8.180576E+01   1.119346E+02   1.925838E+01   1.151969E+01   9.274989E+00   2.257054E+01   5.306125E+01   9.035349E+01   8.427567E+01   9.227274E+01   5.431198E+01   1.163811E+02   1.419187E+02   1.108772E+02   2.642864E+02   1.291749E+02   1.491250E+02   1.012141E+02   8.156013E+01   1.079973E+02   8.986963E+01   1.234163E+02   1.697424E+01   3.655016E+01   4.505474E+01   3.740082E+01   1.298742E+02   3.016107E+02   5.646630E+01   3.984486E+01   1.635132E+01   4.792480E+01   1.741046E+02   2.599422E+02   1.632380E+02   3.743754E+01   6.739713E+01   4.211567E+01   3.802618E+01   1.407964E+01   1.688527E+01   8.593976E+00   1.658124E+01   2.833431E+01   6.169175E+01   6.310295E+01   3.789056E+01   1.222496E+02   1.022989E+02   1.355771E+02   2.229706E+02   9.154052E+01   5.850201E+01   4.977139E+01   5.538965E+01   3.220854E+01   1.560456E+01   1.563053E+01   2.445285E+01   6.186187E+01   3.016727E+01   5.478030E+01   5.675457E+01   1.868264E+01   3.387543E+01   2.730100E+01   7.946418E+01   1.968731E+02   1.122978E+02   1.754942E+02   9.217130E+01   8.531645E+01   2.088858E+02   4.173622E+02   4.865280E+02   1.592044E+02   2.324165E+02   7.212598E+01   3.305710E+01   5.629911E+01   1.161760E+02   1.161760E+02   1.515047E+02   9.839168E+01   9.839168E+01   1.449145E+02   1.188397E+02   1.188397E+02   4.118134E+01   4.118134E+01   4.118134E+01   1.434515E+01   1.434515E+01   1.434515E+01   9.630353E+01   9.630353E+01   9.630353E+01   9.630353E+01   9.630353E+01   4.073139E+01   4.073139E+01   4.073139E+01   4.073139E+01   4.073139E+01   3.961133E+01   3.961133E+01   3.961133E+01   3.961133E+01   3.961133E+01   3.961133E+01   3.961133E+01   6.202694E+01   6.202694E+01   6.202694E+01   6.202694E+01   6.202694E+01   6.202694E+01   6.202694E+01   6.202694E+01   6.202694E+01   6.202694E+01   3.032473E+01   3.032473E+01   3.032473E+01   3.032473E+01   3.032473E+01   3.032473E+01   3.032473E+01   3.032473E+01   3.032473E+01   1.757942E+01   1.757942E+01   1.757942E+01   1.757942E+01   1.757942E+01   1.757942E+01   1.757942E+01   2.169254E+01   2.169254E+01   2.169254E+01   2.169254E+01   2.169254E+01   4.656332E+01   4.656332E+01   4.656332E+01   4.656332E+01   5.392854E+01   5.392854E+01   5.392854E+01   1.122429E+02   1.122429E+02   9.181561E+01   9.181561E+01   1.197034E+02   1.197034E+02   7.611977E+01   2.772421E+01   2.074093E+02   2.074093E+02   1.674534E+02   9.565142E+01   3.717979E+01   1.929134E+01   1.192969E+01   2.119541E+01   4.582535E+01   2.997975E+01   1.568920E+01   2.777304E+01   3.031051E+01   1.008355E+02   2.982590E+01   2.750780E+01   6.371130E+01   1.102557E+02   6.589842E+01   6.858315E+01   5.016269E+01   1.123084E+02   3.070308E+01   1.003010E+02   4.958437E+01   4.156334E+01   4.712484E+01   4.629782E+01   1.301654E+02   1.158403E+02   3.940487E+01   4.332719E+01   8.558839E+01   1.138176E+02   5.495995E+01   7.120275E+01   5.017306E+01   2.667142E+01   2.861943E+01   2.568483E+01   2.404860E+01
   3.019716E+01   1.161237E+02   2.909826E+01   1.513136E+01   2.377697E+01   2.478512E+01   5.853753E+01   1.029558E+02   4.044128E+01   6.436066E+01   6.650092E+01   3.475233E+01   4.409586E+01   8.656240E+00   3.149933E+01   1.755425E+02   1.318191E+02   1.221061E+02   6.895824E+01   4.973341E+01   5.839927E+01   9.045966E+01   9.629491E+01   1.150384E+02   8.585446E+01   3.733494E+01   6.762949E+01   1.074773E+02   7.162764E+01   1.478224E+02   5.132449E+01   3.383320E+01   3.386042E+01   7.225889E+01   3.477194E+01   3.584594E+02   1.390174E+02   1.579244E+02   4.069725E+01   2.119763E+01   4.915930E+01   2.185038E+02   1.534060E+02   9.871828E+01   8.702629E+01   7.985093E+01   3.328499E+01   4.120567E+01   9.047421E+00   1.083229E+01   1.200748E+01   1.679072E+01   7.141394E+01   7.205504E+01   8.228856E+01   4.373884E+01   1.657916E+02   1.883719E+02   6.430788E+01   1.006895E+02   7.576937E+01   6.669836E+01   2.017001E+01   1.458435E+01   2.525329E+01   1.443579E+01   1.457163E+01   1.650474E+01   5.339551E+01   9.485710E+01   3.647289E+01   3.958519E+01   1.272403E+01   2.847742E+01   4.791036E+01   9.961702E+01   1.197732E+02   1.366718E+02   1.260020E+02   7.871289E+01   7.511137E+01   1.412113E+02   6.913374E+01   2.559316E+02   1.539837E+02   1.011425E+02   4.524530E+01   2.994928E+01   4.271426E+01   1.338587E+02   1.338587E+02   1.524310E+02   9.169333E+01   9.169333E+01   1.085015E+02   6.867748E+01   6.867748E+01   1.556591E+01   1.556591E+01   1.556591E+01   1.179085E+01   1.179085E+01   1.179085E+01   5.024675E+01   5.024675E+01   5.024675E+01   5.024675E+01   5.024675E+01   5.058131E+01   5.058131E+01   5.058131E+01   5.058131E+01   5.058131E+01   1.663993E+02   1.663993E+02   1.663993E+02   1.663993E+02   1.663993E+02   1.663993E+02   1.663993E+02   1.019079E+02   1.019079E+02   1.019079E+02   1.019079E+02   1.019079E+02   1.019079E+02   1.019079E+02   1.019079E+02   1.019079E+02   1.019079E+02   3.338887E+01   3.338887E+01   3.338887E+01   3.338887E+01   3.338887E+01   3.338887E+01   3.338887E+01   3.338887E+01   3.338887E+01   3.664388E+01   3.664388E+01   3.664388E+01   3.664388E+01   3.664388E+01   3.664388E+01   3.664388E+01   2.794051E+01   2.794051E+01   2.794051E+01   2.794051E+01   2.794051E+01   5.286997E+01   5.286997E+01   5.286997E+01   5.286997E+01   5.611032E+01   5.611032E+01   5.611032E+01   7.453301E+01   7.453301E+01   8.651499E+01   8.651499E+01   9.660757E+01   9.660757E+01   4.501305E+01   1.454688E+01   1.271563E+02   1.271563E+02   4.961705E+01   4.289429E+01   2.753568E+01   2.064074E+01   3.295160E+01   4.103919E+01   9.704063E+01   4.906471E+01   2.763175E+01   1.676787E+01   2.450023E+01   3.340429E+01   3.207561E+01   2.915439E+01   3.428256E+01   1.359476E+02   4.357479E+01   1.239162E+02   9.551111E+01   8.471767E+01   5.903931E+01   6.797191E+01   4.200463E+01   4.656081E+01   4.167249E+01   5.732139E+01   6.322652E+01   1.173270E+02   1.721943E+02   2.414707E+01   6.668792E+01   1.947077E+02   3.671323E+01   2.808289E+01   4.999335E+01   2.610093E+01   2.032811E+01   2.228709E+01   1.598885E+01
   2.365564E+01   6.867892E+01   4.687976E+01   2.646023E+01   2.137206E+01   1.061542E+01   3.519077E+01   3.807030E+01   3.504839E+01   2.775427E+01   6.979626E+01   3.441272E+01   4.371571E+01   3.573949E+01   3.165819E+01   1.379040E+02   1.614985E+02   9.713555E+01   5.197459E+01   1.911039E+01   1.909369E+01   3.032182E+01   5.059387E+01   7.503842E+01   1.042593E+02   5.527598E+01   1.020823E+02   1.722657E+02   7.855544E+01   2.573953E+02   8.052798E+01   2.774947E+01   3.727429E+01   4.255027E+01   7.181786E+01   1.974230E+02   9.144280E+01   1.603852E+02   1.237311E+02   7.405982E+01   1.032188E+02   1.722331E+02   1.854386E+02   1.163844E+02   7.169144E+01   1.081798E+02   3.017133E+01   3.488477E+01   9.343111E+00   4.346521E+01   3.178812E+01   3.839495E+01   1.111724E+02   9.800601E+01   5.922352E+01   9.913465E+01   1.328728E+02   5.771505E+01   4.864956E+01   6.312093E+01   5.280818E+01   5.679872E+01   1.428589E+01   1.229817E+01   3.078701E+01   2.308985E+01   2.854675E+01   1.458260E+01   3.590944E+01   3.832607E+01   3.259328E+01   2.010894E+01   4.982687E+00   3.317484E+01   4.564064E+01   6.816856E+01   4.251474E+01   2.041631E+02   1.214408E+02   7.597665E+01   8.300846E+01   4.846290E+01   5.164025E+01   1.657637E+02   2.584841E+02   1.120742E+02   4.578570E+01   2.856783E+01   4.530962E+01   6.125869E+01   6.125869E+01   8.532272E+01   1.375155E+02   1.375155E+02   9.612262E+01   5.779176E+01   5.779176E+01   1.058946E+01   1.058946E+01   1.058946E+01   2.146002E+01   2.146002E+01   2.146002E+01   2.911566E+01   2.911566E+01   2.911566E+01   2.911566E+01   2.911566E+01   3.406882E+01   3.406882E+01   3.406882E+01   3.406882E+01   3.406882E+01   7.644423E+01   7.644423E+01   7.644423E+01   7.644423E+01   7.644423E+01   7.644423E+01   7.644423E+01   6.895067E+01   6.895067E+01   6.895067E+01   6.895067E+01   6.895067E+01   6.895067E+01   6.895067E+01   6.895067E+01   6.895067E+01   6.895067E+01   4.077156E+01   4.077156E+01   4.077156E+01   4.077156E+01   4.077156E+01   4.077156E+01   4.077156E+01   4.077156E+01   4.077156E+01   6.036162E+01   6.036162E+01   6.036162E+01   6.036162E+01   6.036162E+01   6.036162E+01   6.036162E+01   3.210073E+01   3.210073E+01   3.210073E+01   3.210073E+01   3.210073E+01   4.361101E+01   4.361101E+01   4.361101E+01   4.361101E+01   5.269763E+01   5.269763E+01   5.269763E+01   5.528160E+01   5.528160E+01   7.751681E+01   7.751681E+01   1.354099E+02   1.354099E+02   5.195151E+01   2.247542E+01   2.381724E+01   2.381724E+01   3.891291E+01   9.213377E+01   4.653799E+01   1.873934E+01   7.667554E+01   5.835829E+01   9.019164E+01   8.180148E+01   6.362223E+01   4.031882E+01   8.471548E+01   6.575851E+01   4.210915E+01   4.090990E+01   5.819123E+01   4.008237E+01   2.019701E+01   2.978643E+01   8.473242E+01   3.574692E+01   3.532107E+01   5.742738E+01   2.537338E+01   3.510807E+01   4.093652E+01   1.522450E+01   4.182843E+01   8.412486E+01   1.214525E+02   2.479063E+01   6.141122E+01   9.818591E+01   7.014679E+01   5.639000E+01   1.937698E+01   2.280210E+01   2.186294E+01   1.842017E+01   2.371241E+01
   1.576418E+01   2.700265E+01   3.362268E+01   3.166415E+01   1.698174E+01   1.844518E+01   2.927084E+01   3.096724E+01   3.585915E+01   2.598284E+01   2.723686E+01   1.403765E+01   3.020782E+01   4.657171E+01   3.502652E+01   4.307987E+01   6.523590E+01   6.201137E+01   3.754750E+01   3.687961E+01   1.843774E+01   5.250830E+01   3.842734E+01   5.956554E+01   1.295000E+02   7.553026E+01   2.297687E+02   1.850154E+02   1.470424E+02   1.838807E+02   3.835339E+01   2.961030E+01   1.878913E+01   1.098237E+02   4.618790E+01   1.142465E+02   9.802323E+01   3.194294E+02   1.143792E+02   1.052425E+02   3.185702E+02   1.331374E+02   1.678814E+02   9.709147E+01   9.110078E+01   4.037701E+01   2.538096E+01   3.596921E+01   2.715627E+01   4.263860E+01   3.703245E+01   5.091730E+01   1.286477E+02   1.545727E+02   6.539825E+01   1.184511E+02   9.450751E+01   4.005341E+01   2.787936E+01   3.142869E+01   8.474590E+01   4.196894E+01   2.627858E+01   3.941645E+01   2.830345E+01   1.724455E+01   1.981612E+01   3.646850E+01   2.579243E+01   1.431342E+01   1.707810E+01   1.268047E+01   5.326684E+00   1.481008E+01   2.140825E+01   6.522343E+01   1.081607E+02   1.169897E+02   2.021445E+02   7.149944E+01   6.793015E+01   6.038622E+01   5.870470E+01   6.370974E+01   1.238831E+02   1.541721E+02   5.077576E+01   2.101935E+01   2.408249E+01   4.746133E+01   4.746133E+01   8.943169E+01   1.540858E+02   1.540858E+02   1.257706E+02   6.428167E+01   6.428167E+01   1.944931E+01   1.944931E+01   1.944931E+01   7.653126E+00   7.653126E+00   7.653126E+00   2.391447E+01   2.391447E+01   2.391447E+01   2.391447E+01   2.391447E+01   3.856565E+01   3.856565E+01   3.856565E+01   3.856565E+01   3.856565E+01   1.907480E+02   1.907480E+02   1.907480E+02   1.907480E+02   1.907480E+02   1.907480E+02   1.907480E+02   2.852694E+02   2.852694E+02   2.852694E+02   2.852694E+02   2.852694E+02   2.852694E+02   2.852694E+02   2.852694E+02   2.852694E+02   2.852694E+02   9.220388E+01   9.220388E+01   9.220388E+01   9.220388E+01   9.220388E+01   9.220388E+01   9.220388E+01   9.220388E+01   9.220388E+01   7.211118E+01   7.211118E+01   7.211118E+01   7.211118E+01   7.211118E+01   7.211118E+01   7.211118E+01   5.818744E+01   5.818744E+01   5.818744E+01   5.818744E+01   5.818744E+01   2.651884E+01   2.651884E+01   2.651884E+01   2.651884E+01   3.273457E+01   3.273457E+01   3.273457E+01   4.052038E+01   4.052038E+01   1.042643E+02   1.042643E+02   7.179477E+01   7.179477E+01   6.418372E+01   5.667083E+01   2.971303E+01   2.971303E+01   5.424314E+01   2.191187E+01   3.770624E+01   4.047135E+01   4.998150E+01   1.415379E+02   1.458664E+02   1.266436E+02   5.763895E+01   8.165979E+01   1.627900E+02   5.211571E+01   4.020399E+01   7.177604E+01   5.252145E+01   2.324946E+01   1.082110E+01   2.515259E+01   5.834329E+01   3.915337E+01   3.551471E+01   2.393953E+01   3.187063E+01   1.671633E+01   1.932087E+01   1.152036E+01   2.563625E+01   6.657312E+01   3.071339E+01   5.483798E+01   6.272830E+01   9.760281E+01   9.868195E+01   7.950336E+01   1.091667E+01   2.178401E+01   4.270401E+01   4.161646E+01   1.509368E+01