# LPF package for  MODFLOW-2005, generated by Flopy.
        53    -1E+30         0  
         1
         0
   0.000000E+00
         0
         0
INTERNAL               1 (207E15.6) -1 #hk layer 1                    
   2.021261E-01   1.145085E-01   7.019667E-02   3.370879E-02   1.894024E-02   1.187917E-01   3.225508E-02   1.719150E-01   6.365967E-02   4.926512E-02   2.207407E-02   2.728217E-02   5.975221E-02   5.474974E-02   1.575908E-01   4.499593E-02   7.116883E-02   1.617579E-01   7.622648E-02   4.044715E-02   2.997589E-02   9.074615E-02   1.752488E-01   2.742920E-01   3.374942E-01   1.568391E-01   1.092748E-01   2.031013E-02   4.605900E-02   3.506308E-02   1.653810E-02   2.894301E-02   6.998365E-02   8.093306E-02   8.496272E-02   9.222668E-02   7.588035E-02   3.537937E-02   8.844586E-02   1.869079E-01   9.194650E-02   8.246684E-02   2.671258E-01   7.679067E-02   1.817318E-01   1.179190E-01   8.322575E-03   6.375807E-03   1.169238E-02   9.678908E-03   3.356192E-02   4.574822E-02   4.217821E-02   3.183717E-02   6.094300E-02   2.535122E-02   1.620423E-02   2.015417E-02   2.279886E-02   2.536734E-02   1.522927E-01   2.239295E-01   2.088654E-01   1.647313E-01   4.608944E-02   6.286756E-02   6.804554E-02   1.249240E-01   4.787796E-02   5.698266E-02   6.084852E-02   1.200637E-01   1.384964E-01   8.787578E-02   7.960725E-02   3.691514E-02   5.254070E-02   1.421748E-01   6.775545E-02   4.765846E-02   1.835689E-02   3.482071E-02   1.135403E-01   2.137537E-01   3.442900E-01   3.435102E-01   1.349628E-01   5.656024E-02   4.366423E-02   3.513230E-02   3.513230E-02   1.241822E-01   6.628840E-02   6.628840E-02   3.568120E-02   2.266774E-01   2.266774E-01   3.395298E-02   3.395298E-02   3.395298E-02   2.062448E-01   2.062448E-01   2.062448E-01   2.369463E-01   2.369463E-01   2.369463E-01   2.369463E-01   2.369463E-01   1.557453E-01   1.557453E-01   1.557453E-01   1.557453E-01   1.557453E-01   5.002666E-02   5.002666E-02   5.002666E-02   5.002666E-02   5.002666E-02   5.002666E-02   5.002666E-02   3.090373E-02   3.090373E-02   3.090373E-02   3.090373E-02   3.090373E-02   3.090373E-02   3.090373E-02   3.090373E-02   3.090373E-02   3.090373E-02   1.328918E-02   1.328918E-02   1.328918E-02   1.328918E-02   1.328918E-02   1.328918E-02   1.328918E-02   1.328918E-02   1.328918E-02   6.806141E-03   6.806141E-03   6.806141E-03   6.806141E-03   6.806141E-03   6.806141E-03   6.806141E-03   7.983824E-03   7.983824E-03   7.983824E-03   7.983824E-03   7.983824E-03   1.854592E-02   1.854592E-02   1.854592E-02   1.854592E-02   1.206722E-02   1.206722E-02   1.206722E-02   2.124441E-02   2.124441E-02   4.708047E-02   4.708047E-02   1.423025E-01   1.423025E-01   2.766607E-02   6.400873E-02   1.116449E-01   1.116449E-01   5.472963E-02   3.418560E-02   7.418796E-02   6.506842E-02   1.146515E-01   1.069611E-01   2.568503E-01   3.660498E-01   9.720661E-02   7.691336E-02   1.774956E-02   3.983293E-02   3.081357E-02   2.566709E-02   1.726325E-02   3.184799E-02   8.029436E-02   7.373707E-02   6.852631E-02   3.836635E-02   1.295106E-01   2.526502E-01   1.762483E-01   1.003696E-01   3.961283E-02   4.128586E-02   2.857310E-02   2.119499E-02   2.610167E-02   4.586663E-02   5.982218E-02   5.345883E-02   3.279835E-02   2.212523E-02   1.420785E-02   1.620368E-02   3.897294E-02   8.214699E-02   8.763026E-02
   1.641921E-01   1.419401E-01   5.153107E-02   2.792605E-02   2.243257E-02   6.171035E-02   4.434093E-02   7.732885E-02   2.032953E-02   2.036437E-02   2.850088E-02   4.018204E-02   5.721236E-02   6.942807E-02   3.190931E-01   1.348260E-01   1.154028E-01   1.511913E-01   7.658048E-02   4.021905E-02   3.094139E-02   1.035713E-01   8.309676E-02   2.030612E-01   4.478883E-01   3.095722E-01   7.126772E-02   2.217101E-02   4.087514E-02   4.597375E-02   1.389739E-02   1.747882E-02   7.184644E-02   5.811293E-02   8.842468E-02   6.175179E-02   1.084866E-01   1.222666E-01   1.059698E-01   8.065440E-02   5.207706E-02   4.172767E-02   1.446004E-01   1.045441E-01   7.155364E-02   7.976887E-02   1.504522E-02   6.900396E-03   6.921451E-03   2.166510E-02   4.503359E-02   1.118182E-01   4.902659E-02   1.382252E-02   6.494783E-02   2.668997E-02   1.412585E-02   1.615461E-02   2.371179E-02   4.763929E-02   9.586652E-02   7.635840E-02   2.198550E-01   7.899408E-02   5.883865E-02   4.534094E-02   4.260439E-02   5.179316E-02   2.297399E-02   1.144088E-01   9.003349E-02   7.919388E-02   2.081202E-01   4.793944E-02   6.210471E-02   5.125922E-02   1.561431E-01   1.522875E-01   7.114349E-02   3.953658E-02   2.542245E-02   1.346068E-01   6.326068E-02   1.729087E-01   6.073409E-01   2.554642E-01   1.278930E-01   5.368671E-02   1.042774E-01   4.385147E-02   4.385147E-02   8.286207E-02   8.952422E-02   8.952422E-02   9.205116E-02   6.974893E-02   6.974893E-02   3.998437E-02   3.998437E-02   3.998437E-02   1.855888E-01   1.855888E-01   1.855888E-01   2.044563E-01   2.044563E-01   2.044563E-01   2.044563E-01   2.044563E-01   8.820669E-02   8.820669E-02   8.820669E-02   8.820669E-02   8.820669E-02   3.114445E-02   3.114445E-02   3.114445E-02   3.114445E-02   3.114445E-02   3.114445E-02   3.114445E-02   2.648936E-02   2.648936E-02   2.648936E-02   2.648936E-02   2.648936E-02   2.648936E-02   2.648936E-02   2.648936E-02   2.648936E-02   2.648936E-02   7.772508E-03   7.772508E-03   7.772508E-03   7.772508E-03   7.772508E-03   7.772508E-03   7.772508E-03   7.772508E-03   7.772508E-03   5.976327E-03   5.976327E-03   5.976327E-03   5.976327E-03   5.976327E-03   5.976327E-03   5.976327E-03   6.750958E-03   6.750958E-03   6.750958E-03   6.750958E-03   6.750958E-03   1.193276E-02   1.193276E-02   1.193276E-02   1.193276E-02   1.323657E-02   1.323657E-02   1.323657E-02   7.651798E-02   7.651798E-02   5.469713E-02   5.469713E-02   1.042252E-01   1.042252E-01   4.758242E-02   2.036776E-02   5.213382E-02   5.213382E-02   2.710264E-02   2.817058E-02   8.095547E-02   7.732787E-02   5.883408E-02   1.479428E-01   2.433724E-01   1.660632E-01   9.438049E-02   1.225774E-01   3.739085E-02   4.812172E-02   4.912218E-02   1.313167E-02   1.515550E-02   2.563013E-02   3.290629E-02   5.494383E-02   9.924214E-02   9.991475E-02   7.757957E-02   1.010986E-01   9.283205E-02   4.321939E-02   3.329853E-02   2.859548E-02   2.375603E-02   1.037828E-02   2.547216E-02   3.448891E-02   5.304667E-02   5.317278E-02   5.787362E-02   2.410072E-02   1.344606E-02   1.116717E-02   1.675785E-02   2.487359E-02   7.659772E-02
   2.043168E-01   1.008033E-01   2.605242E-02   2.477895E-02   1.573309E-02   3.568343E-02   4.647893E-02   2.225442E-02   1.276623E-02   1.806840E-02   3.271120E-02   1.065724E-01   6.400667E-02   1.282165E-01   2.085501E-01   1.818247E-01   7.506485E-02   7.521924E-02   4.476442E-02   3.403509E-02   3.784379E-02   9.264523E-02   1.055027E-01   8.372492E-02   2.699252E-01   1.669454E-01   5.997818E-02   4.610391E-02   6.973359E-02   4.140197E-02   4.337623E-02   2.475652E-02   5.012266E-02   6.373625E-02   5.531206E-02   4.489070E-02   5.743427E-02   7.347478E-02   9.655990E-02   8.414531E-02   5.642223E-02   8.311115E-02   1.383834E-01   8.209378E-02   8.859053E-02   3.726653E-02   1.106422E-02   7.565357E-03   1.022533E-02   2.370127E-02   7.182039E-02   2.104577E-01   4.232154E-02   1.754448E-02   6.860503E-02   3.338155E-02   1.431138E-02   2.185356E-02   2.777911E-02   1.032738E-01   8.539566E-02   1.727433E-01   1.931195E-01   1.177270E-01   3.490828E-02   3.679520E-02   4.595439E-02   3.403001E-02   2.928119E-02   1.244598E-01   1.024929E-01   4.314261E-02   1.205100E-01   8.674183E-02   6.538845E-02   4.085299E-02   7.849142E-02   2.421780E-01   5.652827E-02   6.013880E-02   8.027442E-02   9.489645E-02   9.347668E-02   3.678027E-01   4.128268E-01   4.456145E-01   1.599579E-01   1.069334E-01   1.429884E-01   8.162639E-02   8.162639E-02   1.260350E-01   9.437826E-02   9.437826E-02   1.869125E-01   1.152833E-01   1.152833E-01   9.757199E-02   9.757199E-02   9.757199E-02   2.216934E-01   2.216934E-01   2.216934E-01   2.223467E-01   2.223467E-01   2.223467E-01   2.223467E-01   2.223467E-01   1.166124E-01   1.166124E-01   1.166124E-01   1.166124E-01   1.166124E-01   2.292133E-02   2.292133E-02   2.292133E-02   2.292133E-02   2.292133E-02   2.292133E-02   2.292133E-02   1.194170E-02   1.194170E-02   1.194170E-02   1.194170E-02   1.194170E-02   1.194170E-02   1.194170E-02   1.194170E-02   1.194170E-02   1.194170E-02   1.983109E-02   1.983109E-02   1.983109E-02   1.983109E-02   1.983109E-02   1.983109E-02   1.983109E-02   1.983109E-02   1.983109E-02   1.109043E-02   1.109043E-02   1.109043E-02   1.109043E-02   1.109043E-02   1.109043E-02   1.109043E-02   7.302572E-03   7.302572E-03   7.302572E-03   7.302572E-03   7.302572E-03   2.358325E-02   2.358325E-02   2.358325E-02   2.358325E-02   9.058783E-03   9.058783E-03   9.058783E-03   8.285163E-02   8.285163E-02   4.691128E-02   4.691128E-02   3.510700E-02   3.510700E-02   4.542980E-02   2.939941E-02   3.734139E-02   3.734139E-02   3.334908E-02   2.127790E-02   1.099226E-01   1.053981E-01   3.542645E-02   9.979103E-02   9.713417E-02   1.424160E-01   9.444603E-02   1.093912E-01   7.229282E-02   2.160708E-02   3.793947E-02   1.686927E-02   8.930158E-03   1.848191E-02   8.232129E-02   8.627261E-02   1.008218E-01   9.207193E-02   1.029591E-01   3.339942E-02   3.291052E-02   3.908901E-02   2.559242E-02   4.176302E-02   3.865332E-02   1.588888E-02   5.263020E-02   8.183844E-02   2.317612E-02   6.143738E-02   5.181777E-02   2.021370E-02   1.020289E-02   1.462928E-02   1.648422E-02   1.870917E-02   2.857498E-02
   2.491960E-01   6.049807E-02   2.653218E-02   2.264725E-02   2.261870E-02   3.844590E-02   6.281288E-02   1.462780E-02   1.129202E-02   2.298509E-02   3.985874E-02   1.011871E-01   8.909463E-02   1.054354E-01   2.536544E-01   1.400331E-01   6.698736E-02   7.100197E-02   6.322909E-02   4.429156E-02   3.672487E-02   5.837747E-02   8.682063E-02   5.545709E-02   9.102678E-02   1.136704E-01   4.087108E-02   5.320965E-02   5.326493E-02   6.683827E-02   4.726243E-02   1.227369E-02   1.775564E-02   4.853385E-02   1.268821E-01   4.169901E-02   2.499068E-02   9.387770E-02   1.165330E-01   1.028533E-01   4.498251E-02   1.301647E-01   5.812089E-02   8.267792E-02   5.758623E-02   2.976000E-02   1.140553E-02   1.021282E-02   2.899865E-02   2.737135E-02   1.041670E-01   1.268890E-01   2.262907E-02   3.228759E-02   6.522915E-02   5.021734E-02   1.885322E-02   1.832574E-02   3.493300E-02   1.116464E-01   9.494336E-02   1.969304E-01   1.340439E-01   6.376114E-02   5.889755E-02   4.596116E-02   2.933306E-02   3.006474E-02   3.941940E-02   8.932625E-02   1.783592E-01   8.032653E-02   1.787041E-01   1.016561E-01   3.016845E-02   2.013119E-02   7.428998E-02   1.648068E-01   5.780922E-02   3.386102E-02   5.744177E-02   9.439564E-02   1.971815E-01   1.751314E-01   3.583203E-01   3.476551E-01   1.826494E-01   1.727163E-01   1.353298E-01   5.975210E-02   5.975210E-02   1.405376E-01   1.299638E-01   1.299638E-01   2.698324E-01   2.303477E-01   2.303477E-01   1.644295E-01   1.644295E-01   1.644295E-01   1.816241E-01   1.816241E-01   1.816241E-01   2.099706E-01   2.099706E-01   2.099706E-01   2.099706E-01   2.099706E-01   2.011755E-01   2.011755E-01   2.011755E-01   2.011755E-01   2.011755E-01   6.770787E-02   6.770787E-02   6.770787E-02   6.770787E-02   6.770787E-02   6.770787E-02   6.770787E-02   2.105510E-02   2.105510E-02   2.105510E-02   2.105510E-02   2.105510E-02   2.105510E-02   2.105510E-02   2.105510E-02   2.105510E-02   2.105510E-02   1.067284E-02   1.067284E-02   1.067284E-02   1.067284E-02   1.067284E-02   1.067284E-02   1.067284E-02   1.067284E-02   1.067284E-02   1.167661E-02   1.167661E-02   1.167661E-02   1.167661E-02   1.167661E-02   1.167661E-02   1.167661E-02   1.344045E-02   1.344045E-02   1.344045E-02   1.344045E-02   1.344045E-02   2.710213E-02   2.710213E-02   2.710213E-02   2.710213E-02   1.360352E-02   1.360352E-02   1.360352E-02   4.590945E-02   4.590945E-02   6.373871E-02   6.373871E-02   4.454326E-02   4.454326E-02   4.041085E-02   3.527170E-02   3.535842E-02   3.535842E-02   3.445086E-02   2.372475E-02   9.358355E-02   8.048006E-02   3.120098E-02   1.733735E-01   1.611094E-01   1.292306E-01   8.779811E-02   9.807376E-02   4.541886E-02   2.273223E-02   4.261831E-02   1.949768E-02   1.273317E-02   2.585919E-02   6.158594E-02   7.450570E-02   1.656193E-01   7.596238E-02   5.952278E-02   5.748893E-02   3.951829E-02   3.531137E-02   3.427236E-02   1.239946E-02   5.945836E-02   1.501935E-02   5.934912E-02   7.827107E-02   4.663565E-02   4.318912E-02   9.305487E-02   2.246104E-02   7.214324E-03   1.435993E-02   3.458991E-02   2.515905E-02   1.522107E-02
   6.947051E-02   5.155830E-02   3.116559E-02   2.751604E-02   1.814010E-02   7.680813E-02   5.391612E-02   1.021849E-02   2.052066E-02   3.197024E-02   5.544126E-02   9.490400E-02   1.778498E-01   1.562935E-01   1.594585E-01   6.007538E-02   3.709931E-02   8.301552E-02   7.091797E-02   5.571771E-02   3.323902E-02   4.215192E-02   2.674270E-02   4.843125E-02   8.520637E-02   6.235468E-02   4.407732E-02   2.717279E-02   6.566064E-02   9.889479E-02   3.320124E-02   9.672973E-03   1.655388E-02   3.140433E-02   6.146362E-02   3.284405E-02   4.988454E-02   7.041911E-02   1.202172E-01   1.054679E-01   4.742281E-02   2.038547E-01   1.024410E-01   9.523635E-02   2.810285E-02   1.711766E-02   1.075891E-02   1.338498E-02   3.195650E-02   9.400599E-02   1.486647E-01   5.741728E-02   3.737161E-02   2.920312E-02   4.207868E-02   3.113286E-02   3.523599E-02   1.861699E-02   3.969466E-02   1.092411E-01   1.283049E-01   1.631642E-01   1.680683E-01   6.853587E-02   3.751491E-02   1.428269E-02   2.909988E-02   3.099339E-02   4.036614E-02   1.189258E-01   1.566867E-01   6.674652E-02   1.418617E-01   8.611117E-02   1.327381E-02   2.275480E-02   2.488914E-02   8.686507E-02   4.964208E-02   3.632030E-02   5.864637E-02   1.100102E-01   1.247367E-01   2.025239E-01   5.786840E-01   3.483035E-01   2.252914E-01   5.301439E-02   7.104599E-02   6.938446E-02   6.938446E-02   1.160283E-01   3.254526E-01   3.254526E-01   4.975723E-01   3.809077E-01   3.809077E-01   1.775360E-01   1.775360E-01   1.775360E-01   1.481170E-01   1.481170E-01   1.481170E-01   1.787735E-01   1.787735E-01   1.787735E-01   1.787735E-01   1.787735E-01   2.129943E-01   2.129943E-01   2.129943E-01   2.129943E-01   2.129943E-01   1.092979E-01   1.092979E-01   1.092979E-01   1.092979E-01   1.092979E-01   1.092979E-01   1.092979E-01   7.760069E-02   7.760069E-02   7.760069E-02   7.760069E-02   7.760069E-02   7.760069E-02   7.760069E-02   7.760069E-02   7.760069E-02   7.760069E-02   3.168730E-02   3.168730E-02   3.168730E-02   3.168730E-02   3.168730E-02   3.168730E-02   3.168730E-02   3.168730E-02   3.168730E-02   3.475912E-02   3.475912E-02   3.475912E-02   3.475912E-02   3.475912E-02   3.475912E-02   3.475912E-02   1.936628E-02   1.936628E-02   1.936628E-02   1.936628E-02   1.936628E-02   5.986975E-02   5.986975E-02   5.986975E-02   5.986975E-02   5.222237E-02   5.222237E-02   5.222237E-02   6.183810E-02   6.183810E-02   5.054690E-02   5.054690E-02   6.206364E-02   6.206364E-02   2.794138E-02   4.177063E-02   3.660380E-02   3.660380E-02   5.799911E-02   4.273580E-02   4.747453E-02   1.024795E-01   7.029699E-02   1.930060E-01   2.006620E-01   1.719664E-01   1.084231E-01   1.166220E-01   5.850119E-02   4.299484E-02   2.977605E-02   2.764392E-02   1.848245E-02   2.850210E-02   3.287667E-02   3.780066E-02   5.190610E-02   8.363684E-02   8.323247E-02   4.475992E-02   7.565298E-02   1.511971E-02   2.580739E-02   3.018719E-02   5.649307E-02   5.108330E-02   3.884519E-02   9.768005E-02   7.358234E-02   4.102802E-02   4.291004E-02   2.814450E-02   1.609958E-02   2.240995E-02   3.469811E-02   1.585351E-02   2.010976E-02
   7.890055E-02   4.620928E-02   2.416430E-02   4.678085E-02   3.634438E-02   6.475363E-02   9.837306E-02   2.136876E-02   3.206959E-02   3.907133E-02   4.879218E-02   3.113205E-02   5.636462E-02   6.429809E-02   3.582771E-02   3.353559E-02   2.123320E-02   4.428272E-02   3.274284E-02   5.765685E-02   5.519362E-02   5.916437E-02   1.996650E-02   1.991188E-02   4.273125E-02   5.908681E-02   3.023724E-02   3.879238E-02   3.160433E-02   5.257825E-02   2.616760E-02   1.084849E-02   2.619865E-02   3.260526E-02   3.103852E-02   2.101860E-02   4.231447E-02   9.047146E-02   1.303452E-01   6.810793E-02   3.308614E-02   1.028836E-01   1.295151E-01   2.499241E-01   1.065328E-01   3.069767E-02   3.171928E-02   4.782286E-02   3.895378E-02   2.127281E-02   7.545566E-02   4.201274E-02   3.372750E-02   2.521089E-02   3.299238E-02   2.265004E-02   5.418671E-02   4.288425E-02   4.658177E-02   1.451502E-01   3.559058E-01   2.068097E-01   2.883982E-01   7.811218E-02   2.902174E-02   1.386509E-02   2.422024E-02   1.189697E-01   1.055174E-01   2.391890E-01   2.579008E-01   1.292819E-01   1.027517E-01   3.063918E-02   1.687028E-02   2.866402E-02   3.197904E-02   3.977969E-02   4.229093E-02   1.362122E-02   8.006521E-02   8.300612E-02   1.069231E-01   2.481456E-01   1.790117E-01   2.390173E-01   1.251836E-01   9.393565E-02   8.165129E-02   5.629206E-02   5.629206E-02   1.553228E-01   3.287820E-01   3.287820E-01   5.900533E-01   3.144489E-01   3.144489E-01   2.830552E-01   2.830552E-01   2.830552E-01   1.761781E-01   1.761781E-01   1.761781E-01   2.617356E-01   2.617356E-01   2.617356E-01   2.617356E-01   2.617356E-01   1.490701E-01   1.490701E-01   1.490701E-01   1.490701E-01   1.490701E-01   1.201567E-01   1.201567E-01   1.201567E-01   1.201567E-01   1.201567E-01   1.201567E-01   1.201567E-01   2.943004E-01   2.943004E-01   2.943004E-01   2.943004E-01   2.943004E-01   2.943004E-01   2.943004E-01   2.943004E-01   2.943004E-01   2.943004E-01   1.016854E-01   1.016854E-01   1.016854E-01   1.016854E-01   1.016854E-01   1.016854E-01   1.016854E-01   1.016854E-01   1.016854E-01   3.049654E-02   3.049654E-02   3.049654E-02   3.049654E-02   3.049654E-02   3.049654E-02   3.049654E-02   1.782230E-02   1.782230E-02   1.782230E-02   1.782230E-02   1.782230E-02   4.664513E-02   4.664513E-02   4.664513E-02   4.664513E-02   4.255229E-02   4.255229E-02   4.255229E-02   5.899712E-02   5.899712E-02   9.485447E-02   9.485447E-02   3.987392E-02   3.987392E-02   3.683870E-02   3.732671E-02   3.935298E-02   3.935298E-02   8.474641E-02   3.154666E-02   2.318003E-02   2.327753E-02   8.455376E-02   2.275459E-01   2.646965E-01   2.154644E-01   1.080181E-01   9.399885E-02   3.420383E-02   2.893720E-02   3.559290E-02   3.532872E-02   5.347286E-02   4.529522E-02   3.173475E-02   2.726933E-02   4.699857E-02   6.043660E-02   6.522094E-02   3.309880E-02   6.672447E-02   1.335278E-02   2.109682E-02   5.722375E-02   3.558867E-02   2.866550E-02   4.242131E-02   1.074254E-01   5.901987E-02   3.890091E-02   3.818008E-02   1.817419E-02   4.039323E-02   7.426979E-02   3.263852E-02   1.760955E-02   2.188223E-02
   8.672184E-02   3.587438E-02   4.684556E-02   3.718209E-02   3.216735E-02   4.813759E-02   8.501801E-02   2.215354E-02   2.068933E-02   3.881091E-02   5.018834E-02   1.335097E-02   3.553940E-02   5.433933E-02   1.331370E-02   2.205424E-02   2.102550E-02   5.919338E-02   6.314007E-02   7.470116E-02   5.292509E-02   4.435527E-02   5.425252E-02   1.499195E-02   3.251563E-02   3.695254E-02   1.705239E-02   3.651849E-02   2.269712E-02   3.330698E-02   2.287207E-02   1.654329E-02   2.242650E-02   2.184447E-02   2.432059E-02   4.667684E-02   3.929280E-02   5.946757E-02   8.566752E-02   6.704091E-02   8.412574E-02   1.591743E-01   1.510120E-01   2.674781E-01   9.753484E-02   7.964600E-02   2.417877E-02   4.131780E-02   5.498278E-02   3.133298E-02   2.650587E-02   2.289244E-02   1.337026E-02   4.112516E-02   4.654853E-02   3.249862E-02   2.968091E-02   6.192150E-02   6.125866E-02   1.443461E-01   4.984082E-01   2.689750E-01   1.259643E-01   9.254833E-02   4.340602E-02   3.479014E-02   6.854182E-02   2.290417E-01   1.826613E-01   3.107789E-01   8.739757E-02   9.750159E-02   9.258264E-02   4.664775E-02   2.941502E-02   1.451435E-02   3.777938E-02   4.209140E-02   3.834189E-02   4.655990E-02   4.741479E-02   4.506578E-02   9.566942E-02   9.095604E-02   1.365344E-01   1.253294E-01   1.683861E-01   8.162241E-02   7.811028E-02   6.141634E-02   6.141634E-02   1.652109E-01   2.545164E-01   2.545164E-01   3.145787E-01   3.731241E-01   3.731241E-01   2.323173E-01   2.323173E-01   2.323173E-01   2.095670E-01   2.095670E-01   2.095670E-01   3.310913E-01   3.310913E-01   3.310913E-01   3.310913E-01   3.310913E-01   1.437273E-01   1.437273E-01   1.437273E-01   1.437273E-01   1.437273E-01   1.254915E-01   1.254915E-01   1.254915E-01   1.254915E-01   1.254915E-01   1.254915E-01   1.254915E-01   3.570885E-01   3.570885E-01   3.570885E-01   3.570885E-01   3.570885E-01   3.570885E-01   3.570885E-01   3.570885E-01   3.570885E-01   3.570885E-01   1.353082E-01   1.353082E-01   1.353082E-01   1.353082E-01   1.353082E-01   1.353082E-01   1.353082E-01   1.353082E-01   1.353082E-01   3.067184E-02   3.067184E-02   3.067184E-02   3.067184E-02   3.067184E-02   3.067184E-02   3.067184E-02   2.080011E-02   2.080011E-02   2.080011E-02   2.080011E-02   2.080011E-02   2.515993E-02   2.515993E-02   2.515993E-02   2.515993E-02   4.997324E-02   4.997324E-02   4.997324E-02   6.059309E-02   6.059309E-02   1.571538E-01   1.571538E-01   7.058275E-02   7.058275E-02   2.965762E-02   2.892386E-02   1.167863E-01   1.167863E-01   1.138083E-01   3.535427E-02   1.867473E-02   2.290953E-02   8.868056E-02   1.120516E-01   3.728889E-01   1.447386E-01   8.101296E-02   6.479686E-02   5.195300E-02   3.421243E-02   9.298418E-02   6.474198E-02   4.237634E-02   7.462582E-02   4.470023E-02   5.294118E-02   4.841293E-02   1.432023E-01   1.255310E-01   3.982479E-02   5.973146E-02   1.808209E-02   5.289672E-02   4.900213E-02   5.105912E-02   4.784373E-02   2.980280E-02   6.948261E-02   3.875856E-02   6.243700E-02   4.400301E-02   2.941536E-02   6.586535E-02   1.001985E-01   4.195140E-02   2.009393E-02   1.620507E-02
   5.649197E-02   2.026840E-02   2.147630E-02   6.937305E-02   3.684558E-02   6.005911E-02   4.606525E-02   5.995227E-03   2.706050E-02   7.940201E-02   4.311823E-02   2.275581E-02   1.427336E-02   4.884310E-02   1.953766E-02   1.032770E-02   3.312949E-02   5.663761E-02   4.692475E-02   2.342867E-02   6.725059E-02   7.115846E-02   5.317415E-02   1.809675E-02   4.455965E-02   7.951701E-02   2.456812E-02   9.063082E-03   1.395626E-02   2.864492E-02   2.977897E-02   1.918900E-02   3.558064E-02   1.439512E-02   3.803594E-02   4.488709E-02   3.640721E-02   4.565523E-02   5.482484E-02   3.709873E-02   1.958746E-01   2.395942E-01   1.729889E-01   5.317906E-01   1.721744E-01   1.134121E-01   1.073346E-01   4.563102E-02   6.730212E-02   3.308829E-02   2.439209E-02   1.385554E-02   1.336986E-02   3.727003E-02   7.875853E-02   5.673645E-02   1.072272E-02   3.776711E-02   1.232446E-01   9.329040E-02   1.734877E-01   1.048625E-01   8.857137E-02   9.802809E-02   3.731829E-02   3.227208E-02   1.009077E-01   1.290791E-01   4.576013E-01   9.365957E-02   7.407690E-02   4.594510E-02   9.325855E-02   3.847173E-02   2.176281E-02   9.440614E-03   2.317798E-02   4.532013E-02   6.504817E-02   1.284220E-01   4.880430E-02   2.688775E-02   4.443685E-02   4.935386E-02   3.530392E-02   1.106414E-01   1.547469E-01   7.004679E-02   6.896258E-02   1.085745E-01   1.085745E-01   9.893651E-02   1.866692E-01   1.866692E-01   2.182443E-01   1.778324E-01   1.778324E-01   2.504867E-01   2.504867E-01   2.504867E-01   9.281528E-02   9.281528E-02   9.281528E-02   1.410914E-01   1.410914E-01   1.410914E-01   1.410914E-01   1.410914E-01   8.502101E-02   8.502101E-02   8.502101E-02   8.502101E-02   8.502101E-02   1.985616E-01   1.985616E-01   1.985616E-01   1.985616E-01   1.985616E-01   1.985616E-01   1.985616E-01   1.548432E-01   1.548432E-01   1.548432E-01   1.548432E-01   1.548432E-01   1.548432E-01   1.548432E-01   1.548432E-01   1.548432E-01   1.548432E-01   7.932405E-02   7.932405E-02   7.932405E-02   7.932405E-02   7.932405E-02   7.932405E-02   7.932405E-02   7.932405E-02   7.932405E-02   4.999144E-02   4.999144E-02   4.999144E-02   4.999144E-02   4.999144E-02   4.999144E-02   4.999144E-02   3.362576E-02   3.362576E-02   3.362576E-02   3.362576E-02   3.362576E-02   4.702581E-02   4.702581E-02   4.702581E-02   4.702581E-02   4.522271E-02   4.522271E-02   4.522271E-02   1.147010E-01   1.147010E-01   2.528353E-01   2.528353E-01   4.148272E-02   4.148272E-02   3.832303E-02   5.006244E-02   9.897021E-02   9.897021E-02   5.049153E-02   6.705113E-02   2.333275E-02   3.429425E-02   5.294733E-02   8.275057E-02   3.217221E-01   1.788491E-01   1.486605E-01   1.189479E-01   7.797554E-02   9.081064E-02   5.905408E-02   1.505824E-01   9.947330E-02   4.945914E-02   9.295964E-02   6.462951E-02   5.331897E-02   7.982776E-02   8.547697E-02   8.320284E-02   5.130794E-02   4.296379E-02   2.921174E-02   3.590516E-02   5.714313E-02   3.870684E-02   2.402663E-02   3.822197E-02   5.475418E-02   6.489486E-02   1.083633E-01   6.564808E-02   8.388653E-02   1.224184E-01   5.788608E-02   1.742756E-02   1.407015E-02
   9.503891E-02   3.658374E-02   8.100669E-02   1.026368E-01   3.295515E-02   4.706641E-02   1.966841E-02   4.074513E-03   2.881154E-02   5.477098E-02   5.689781E-02   2.526858E-02   1.770746E-02   3.496810E-02   6.212216E-02   1.856706E-02   4.771601E-02   7.846753E-02   3.137545E-02   4.327983E-02   5.709818E-02   3.274598E-02   3.051314E-02   1.639255E-02   5.046787E-02   5.624384E-02   4.154930E-02   1.061908E-02   7.492102E-03   4.911284E-02   3.432156E-02   1.508056E-02   1.420975E-02   1.876380E-02   1.884774E-02   4.944119E-02   2.514257E-02   6.971319E-02   2.426409E-02   8.562649E-02   1.463877E-01   1.745201E-01   2.220486E-01   2.779324E-01   3.214274E-01   1.029069E-01   4.832561E-02   2.765086E-02   8.913537E-02   3.085364E-02   2.055102E-02   2.130703E-02   2.612584E-02   5.125355E-02   5.805456E-02   5.566062E-02   1.272482E-02   1.560222E-02   3.066621E-02   1.346720E-01   1.990975E-01   1.338214E-01   1.592954E-01   7.490380E-02   3.706737E-02   6.064625E-02   8.996101E-02   7.500129E-02   2.739239E-01   4.693763E-02   5.004045E-02   2.710751E-02   1.022336E-01   6.097270E-02   2.016344E-02   1.264119E-02   3.051819E-02   1.203132E-01   1.678014E-01   1.454909E-01   2.790681E-02   4.033386E-02   3.878751E-02   4.046289E-02   1.619265E-02   4.353918E-02   1.667788E-01   1.163158E-01   1.225196E-01   2.567155E-01   2.567155E-01   7.828479E-02   1.281438E-01   1.281438E-01   3.507929E-01   1.214880E-01   1.214880E-01   1.348464E-01   1.348464E-01   1.348464E-01   7.486837E-02   7.486837E-02   7.486837E-02   7.513816E-02   7.513816E-02   7.513816E-02   7.513816E-02   7.513816E-02   6.749207E-02   6.749207E-02   6.749207E-02   6.749207E-02   6.749207E-02   1.417293E-01   1.417293E-01   1.417293E-01   1.417293E-01   1.417293E-01   1.417293E-01   1.417293E-01   1.123903E-01   1.123903E-01   1.123903E-01   1.123903E-01   1.123903E-01   1.123903E-01   1.123903E-01   1.123903E-01   1.123903E-01   1.123903E-01   4.251805E-02   4.251805E-02   4.251805E-02   4.251805E-02   4.251805E-02   4.251805E-02   4.251805E-02   4.251805E-02   4.251805E-02   3.995460E-02   3.995460E-02   3.995460E-02   3.995460E-02   3.995460E-02   3.995460E-02   3.995460E-02   5.630969E-02   5.630969E-02   5.630969E-02   5.630969E-02   5.630969E-02   3.516075E-02   3.516075E-02   3.516075E-02   3.516075E-02   5.947195E-02   5.947195E-02   5.947195E-02   1.650776E-01   1.650776E-01   2.328899E-01   2.328899E-01   9.102682E-02   9.102682E-02   6.743646E-02   4.868016E-02   3.273865E-02   3.273865E-02   1.514422E-01   6.469086E-02   2.098118E-02   1.508590E-02   3.756411E-02   3.866382E-02   2.291345E-01   1.480191E-01   2.635292E-01   1.244639E-01   6.198635E-02   8.061970E-02   6.917541E-02   1.118678E-01   1.165761E-01   4.551564E-02   7.338162E-02   1.212403E-01   8.214927E-02   7.677742E-02   6.947168E-02   6.328154E-02   7.200293E-02   8.382183E-02   4.173306E-02   1.022799E-02   2.248295E-02   1.361879E-02   2.125077E-02   5.366217E-02   8.266628E-02   6.422331E-02   5.330513E-02   1.158109E-01   1.586274E-01   5.279009E-02   3.850561E-02   1.047057E-02   1.522819E-02