# LPF package for  MODFLOW-2005, generated by Flopy.
        53    -1E+30         0  
         1
         0
   0.000000E+00
         0
         0
INTERNAL               1 (207E15.6) -1 #hk layer 1                    
   2.733427E+01   2.727211E+01   4.007793E+01   5.413154E+01   3.904282E+01   4.530404E+01   6.485611E+00   2.589867E+01   2.179761E+01   4.107432E+01   2.489676E+01   7.725138E+00   9.641955E+00   4.745040E+00   1.008546E+01   5.857246E+00   2.324294E+01   2.993249E+01   2.554988E+01   1.730904E+01   3.371872E+01   3.952732E+01   3.730740E+01   4.029821E+01   7.633392E+01   6.487685E+01   7.655007E+01   8.865409E+01   4.456561E+01   3.292696E+01   4.384522E+01   3.262152E+01   2.285067E+01   4.234815E+01   5.130325E+01   1.917278E+01   1.458754E+01   3.144504E+01   1.975637E+01   3.543848E+01   3.397758E+01   1.062817E+01   7.837521E+00   1.189259E+01   4.319435E+00   1.344753E+01   1.509628E+01   5.958612E+00   1.848203E+01   5.092609E+01   8.685214E+01   1.247488E+02   1.283515E+02   1.279734E+02   9.655091E+01   8.305046E+01   8.538461E+01   5.235506E+01   2.983474E+01   3.107184E+01   2.719448E+01   3.758309E+01   5.136465E+01   6.456917E+01   1.048756E+02   3.270872E+01   3.278506E+01   4.020331E+01   1.351643E+01   7.786624E+00   7.174599E+01   8.215443E+01   3.446891E+01   2.017537E+01   9.374982E+00   1.784509E+01   4.401125E+01   5.333418E+01   3.510107E+01   3.825873E+01   2.622287E+01   1.721852E+01   8.877211E+00   1.167624E+01   1.109735E+01   1.198131E+01   5.243102E+00   5.164659E+00   1.227394E+01   1.952678E+01   1.952678E+01   3.818536E+01   3.899558E+01   3.899558E+01   3.211901E+01   4.498431E+01   4.498431E+01   3.227858E+01   3.227858E+01   3.227858E+01   3.165349E+01   3.165349E+01   3.165349E+01   1.616225E+01   1.616225E+01   1.616225E+01   1.616225E+01   1.616225E+01   3.573605E+01   3.573605E+01   3.573605E+01   3.573605E+01   3.573605E+01   3.034081E+01   3.034081E+01   3.034081E+01   3.034081E+01   3.034081E+01   3.034081E+01   3.034081E+01   9.796282E+00   9.796282E+00   9.796282E+00   9.796282E+00   9.796282E+00   9.796282E+00   9.796282E+00   9.796282E+00   9.796282E+00   9.796282E+00   5.298366E+00   5.298366E+00   5.298366E+00   5.298366E+00   5.298366E+00   5.298366E+00   5.298366E+00   5.298366E+00   5.298366E+00   3.475664E+00   3.475664E+00   3.475664E+00   3.475664E+00   3.475664E+00   3.475664E+00   3.475664E+00   4.205299E+00   4.205299E+00   4.205299E+00   4.205299E+00   4.205299E+00   9.922703E+00   9.922703E+00   9.922703E+00   9.922703E+00   1.492157E+01   1.492157E+01   1.492157E+01   1.807096E+01   1.807096E+01   2.071655E+01   2.071655E+01   8.262598E+01   8.262598E+01   9.045388E+01   6.869254E+01   1.429158E+02   1.429158E+02   4.021734E+01   3.961980E+01   4.690429E+01   5.457428E+01   8.256316E+01   5.624890E+01   5.833502E+01   4.709835E+01   7.027113E+01   5.815322E+01   1.601567E+01   4.582493E+00   1.005963E+01   5.774319E+00   5.477427E+00   4.270590E+00   1.040586E+01   1.581294E+01   1.114665E+02   1.411715E+02   1.115756E+02   1.998364E+02   1.193230E+02   1.082797E+02   2.107135E+01   1.039364E+01   5.082374E+00   5.898746E+00   7.529786E+00   8.994579E+00   5.886491E+00   1.260615E+01   1.238410E+01   2.839947E+01   1.674007E+01   3.454022E+01   3.428650E+01   4.247079E+01   3.967458E+01
   3.058719E+01   3.107492E+01   4.780263E+01   7.055597E+01   8.908517E+01   4.608551E+01   8.606564E+00   2.950929E+01   2.989540E+01   4.214077E+01   3.646606E+01   1.838795E+01   1.245808E+01   9.247828E+00   1.725581E+01   9.980725E+00   3.292886E+01   5.685915E+01   2.113580E+01   3.299055E+01   5.661848E+01   2.620380E+01   2.278701E+01   3.821112E+01   5.877029E+01   2.499494E+01   4.176733E+01   4.733810E+01   6.659046E+01   2.992537E+01   2.224021E+01   2.029717E+01   2.658233E+01   8.322674E+01   8.761489E+01   1.645188E+01   1.779085E+01   5.440106E+01   2.260871E+01   3.045445E+01   2.482315E+01   1.172005E+01   4.818115E+00   5.452467E+00   1.477450E+01   1.786796E+01   1.828221E+01   8.042665E+00   5.393633E+01   7.004959E+01   5.234156E+01   6.526861E+01   4.973427E+01   4.932491E+01   5.875768E+01   8.827336E+01   1.738684E+02   7.370224E+01   5.153742E+01   5.358659E+01   2.938491E+01   9.209289E+01   6.876010E+01   1.674862E+02   6.714616E+01   5.558328E+01   2.359444E+01   3.931742E+01   1.471449E+01   3.416589E+01   3.463064E+01   2.670128E+01   2.627814E+01   2.117711E+01   7.160756E+00   1.329492E+01   5.086077E+01   5.323590E+01   8.069267E+01   4.209622E+01   2.256645E+01   4.664338E+01   1.145305E+01   1.211757E+01   4.495218E+00   4.962440E+00   9.127164E+00   5.155571E+00   1.055983E+01   1.525083E+01   1.525083E+01   2.818190E+01   4.427721E+01   4.427721E+01   7.046680E+01   9.228416E+01   9.228416E+01   3.418470E+01   3.418470E+01   3.418470E+01   2.123185E+01   2.123185E+01   2.123185E+01   8.121713E+00   8.121713E+00   8.121713E+00   8.121713E+00   8.121713E+00   7.743766E+00   7.743766E+00   7.743766E+00   7.743766E+00   7.743766E+00   7.018441E+00   7.018441E+00   7.018441E+00   7.018441E+00   7.018441E+00   7.018441E+00   7.018441E+00   9.176907E+00   9.176907E+00   9.176907E+00   9.176907E+00   9.176907E+00   9.176907E+00   9.176907E+00   9.176907E+00   9.176907E+00   9.176907E+00   9.401023E+00   9.401023E+00   9.401023E+00   9.401023E+00   9.401023E+00   9.401023E+00   9.401023E+00   9.401023E+00   9.401023E+00   4.532160E+00   4.532160E+00   4.532160E+00   4.532160E+00   4.532160E+00   4.532160E+00   4.532160E+00   6.012700E+00   6.012700E+00   6.012700E+00   6.012700E+00   6.012700E+00   6.912558E+00   6.912558E+00   6.912558E+00   6.912558E+00   1.205199E+01   1.205199E+01   1.205199E+01   2.134646E+01   2.134646E+01   8.848654E+00   8.848654E+00   3.346012E+01   3.346012E+01   1.921300E+02   8.129716E+01   3.666444E+01   3.666444E+01   1.808543E+01   1.110094E+01   2.475262E+01   2.882220E+01   1.078345E+02   6.640012E+01   3.900729E+01   3.950520E+01   8.928741E+01   3.852675E+01   2.696195E+01   8.724051E+00   8.235835E+00   1.368956E+01   8.381145E+00   8.328143E+00   8.181305E+00   9.609490E+00   6.347781E+01   1.235040E+02   1.207989E+02   1.477378E+02   1.010130E+02   7.457812E+01   1.869935E+01   1.223711E+01   5.151590E+00   3.858648E+00   5.724555E+00   8.307744E+00   1.169158E+01   2.021365E+01   3.055773E+01   2.921621E+01   3.188694E+01   3.891883E+01   4.090596E+01   6.828752E+01   3.060582E+01
   8.797688E+00   3.089024E+01   4.033441E+01   5.998937E+01   5.681504E+01   1.871117E+01   1.447851E+01   2.184209E+01   3.425859E+01   7.528811E+01   4.617204E+01   2.516821E+01   1.498158E+01   1.475901E+01   1.541533E+01   7.698059E+00   4.497087E+01   3.523718E+01   2.549402E+01   5.801028E+01   3.286002E+01   7.930571E+00   2.032413E+01   4.494815E+01   2.947451E+01   1.479986E+01   2.555341E+01   2.279850E+01   6.077209E+01   3.064932E+01   1.829653E+01   1.585057E+01   2.308706E+01   3.021632E+01   2.957007E+01   6.419338E+00   2.334121E+01   6.475185E+01   3.130822E+01   4.367776E+01   2.140993E+01   6.541683E+00   4.780752E+00   9.601557E+00   1.755646E+01   2.065943E+01   4.065933E+01   1.776935E+01   4.158628E+01   2.217577E+01   4.494325E+01   6.965923E+01   2.745135E+01   2.894132E+01   9.626734E+01   6.842684E+01   1.633010E+02   8.441866E+01   5.298434E+01   3.514184E+01   8.558962E+01   1.232417E+02   1.984052E+02   1.596407E+02   5.943518E+01   4.302558E+01   1.519527E+01   3.159852E+01   8.758600E+01   4.988646E+01   2.833973E+01   4.739358E+01   6.791183E+01   2.451021E+01   4.138804E+00   6.856161E+00   4.444094E+01   4.771350E+01   5.524788E+01   3.067625E+01   2.301499E+01   3.731271E+01   8.629037E+00   1.109039E+01   8.715579E+00   7.018354E+00   6.480203E+00   5.265091E+00   1.430681E+01   1.493391E+01   1.493391E+01   2.017713E+01   2.970380E+01   2.970380E+01   8.823183E+01   6.348046E+01   6.348046E+01   2.598987E+01   2.598987E+01   2.598987E+01   1.667019E+01   1.667019E+01   1.667019E+01   5.490252E+00   5.490252E+00   5.490252E+00   5.490252E+00   5.490252E+00   8.020615E+00   8.020615E+00   8.020615E+00   8.020615E+00   8.020615E+00   9.175532E+00   9.175532E+00   9.175532E+00   9.175532E+00   9.175532E+00   9.175532E+00   9.175532E+00   7.208372E+00   7.208372E+00   7.208372E+00   7.208372E+00   7.208372E+00   7.208372E+00   7.208372E+00   7.208372E+00   7.208372E+00   7.208372E+00   1.816896E+01   1.816896E+01   1.816896E+01   1.816896E+01   1.816896E+01   1.816896E+01   1.816896E+01   1.816896E+01   1.816896E+01   4.860435E+00   4.860435E+00   4.860435E+00   4.860435E+00   4.860435E+00   4.860435E+00   4.860435E+00   6.897106E+00   6.897106E+00   6.897106E+00   6.897106E+00   6.897106E+00   1.088672E+01   1.088672E+01   1.088672E+01   1.088672E+01   1.878992E+01   1.878992E+01   1.878992E+01   2.716909E+01   2.716909E+01   1.376297E+01   1.376297E+01   3.253198E+01   3.253198E+01   7.035879E+01   9.919855E+01   2.568441E+01   2.568441E+01   1.590281E+01   1.483339E+01   4.554612E+01   4.508458E+01   1.707446E+02   1.136534E+02   3.472057E+01   2.785947E+01   2.363896E+01   1.722758E+01   2.384348E+01   1.332658E+01   1.091646E+01   9.519236E+00   4.243465E+00   2.038142E+01   9.088283E+00   1.057970E+01   3.328734E+01   7.043322E+01   1.310186E+02   1.610701E+02   5.468726E+01   5.458266E+01   2.986264E+01   1.913418E+01   1.067467E+01   5.687283E+00   1.462174E+01   1.279732E+01   2.232903E+01   1.835420E+01   4.819961E+01   2.773573E+01   5.568704E+01   3.620562E+01   3.945392E+01   3.736723E+01   8.142120E+01
   6.362952E+00   1.971556E+01   6.997428E+01   7.670277E+01   7.887543E+01   1.697689E+01   1.442521E+01   1.059930E+01   2.989735E+01   1.183329E+02   4.087918E+01   2.474575E+01   1.722671E+01   9.128694E+00   2.968415E+01   1.871915E+01   4.531713E+01   6.215898E+01   1.633223E+01   9.203066E+01   3.088184E+01   8.645426E+00   1.533249E+01   2.935951E+01   2.990179E+01   1.307005E+01   2.146449E+01   3.462044E+01   1.649928E+01   2.185008E+01   2.282206E+01   2.059886E+01   2.486529E+01   1.328050E+01   2.061089E+01   7.879118E+00   1.481434E+01   1.027398E+02   5.549403E+01   3.803482E+01   3.156162E+01   7.782776E+00   7.895646E+00   7.141728E+00   1.669048E+01   4.214816E+01   9.196201E+01   3.290484E+01   2.963912E+01   3.725888E+01   2.068943E+01   4.168539E+01   1.746487E+01   7.428028E+01   6.852039E+01   8.384663E+01   1.597233E+02   1.176228E+02   4.002341E+01   6.231351E+01   5.804200E+01   9.257551E+01   1.152066E+02   1.212025E+02   7.004549E+01   2.305197E+01   2.951478E+01   2.222149E+01   6.517071E+01   8.800993E+01   3.547928E+01   2.714954E+01   3.575553E+01   1.457906E+01   3.562575E+00   8.549400E+00   3.124016E+01   5.872293E+01   7.053207E+01   3.053530E+01   3.416069E+01   4.769493E+01   1.960706E+01   2.843130E+01   2.264358E+01   6.998332E+00   5.315941E+00   1.281441E+01   1.883489E+01   1.636595E+01   1.636595E+01   2.004984E+01   5.577227E+01   5.577227E+01   4.555817E+01   7.119629E+01   7.119629E+01   2.962660E+01   2.962660E+01   2.962660E+01   1.978801E+01   1.978801E+01   1.978801E+01   6.977741E+00   6.977741E+00   6.977741E+00   6.977741E+00   6.977741E+00   6.217308E+00   6.217308E+00   6.217308E+00   6.217308E+00   6.217308E+00   1.692587E+01   1.692587E+01   1.692587E+01   1.692587E+01   1.692587E+01   1.692587E+01   1.692587E+01   1.797883E+01   1.797883E+01   1.797883E+01   1.797883E+01   1.797883E+01   1.797883E+01   1.797883E+01   1.797883E+01   1.797883E+01   1.797883E+01   1.704363E+01   1.704363E+01   1.704363E+01   1.704363E+01   1.704363E+01   1.704363E+01   1.704363E+01   1.704363E+01   1.704363E+01   5.006764E+00   5.006764E+00   5.006764E+00   5.006764E+00   5.006764E+00   5.006764E+00   5.006764E+00   7.802965E+00   7.802965E+00   7.802965E+00   7.802965E+00   7.802965E+00   9.818974E+00   9.818974E+00   9.818974E+00   9.818974E+00   2.134917E+01   2.134917E+01   2.134917E+01   1.131981E+01   1.131981E+01   1.223898E+01   1.223898E+01   3.878746E+01   3.878746E+01   4.597288E+01   1.091681E+02   4.916687E+01   4.916687E+01   2.054710E+01   1.508553E+01   2.026248E+01   4.703578E+01   1.088523E+02   1.309897E+02   8.090876E+01   7.131454E+01   1.048498E+02   2.433266E+01   8.826612E+00   9.375686E+00   1.682236E+01   1.830146E+01   3.161861E+00   2.964403E+01   1.433235E+01   2.134018E+01   3.077062E+01   4.875050E+01   4.173238E+01   6.310806E+01   3.616580E+01   3.090477E+01   3.070690E+01   2.116936E+01   1.312920E+01   1.063343E+01   1.675989E+01   1.198793E+01   1.630395E+01   1.905608E+01   3.100055E+01   3.499501E+01   8.237793E+01   3.485846E+01   2.276141E+01   3.215585E+01   4.331713E+01
   7.653143E+00   1.929714E+01   3.537066E+01   4.996328E+01   3.324627E+01   2.461104E+01   2.918414E+01   1.477387E+01   3.525871E+01   7.222054E+01   3.621613E+01   1.896571E+01   1.469649E+01   2.154339E+01   2.152337E+01   2.166269E+01   4.875040E+01   1.704364E+02   1.611119E+01   8.388809E+01   1.113651E+01   6.707078E+00   2.668056E+01   2.380005E+01   1.829304E+01   1.738396E+01   1.396476E+01   2.078045E+01   1.271235E+01   1.854362E+01   2.078235E+01   1.590101E+01   2.311938E+01   1.199543E+01   1.820798E+01   8.814147E+00   3.926948E+01   9.515946E+01   3.870670E+01   3.063461E+01   1.712873E+01   7.361278E+00   9.258574E+00   5.946669E+00   3.177416E+01   6.413791E+01   3.581428E+01   3.953741E+01   1.065283E+01   1.196511E+01   1.166850E+01   2.191345E+01   2.841253E+01   3.513629E+01   4.886144E+01   1.322115E+02   2.078519E+02   3.579400E+01   4.174386E+01   7.194506E+01   8.217050E+01   1.660000E+02   9.493446E+01   7.667033E+01   2.885922E+01   2.143465E+01   3.158818E+01   1.930896E+01   6.698060E+01   6.893453E+01   4.081407E+01   3.624240E+01   4.435324E+01   1.378041E+01   5.851435E+00   1.087695E+01   3.450454E+01   3.632694E+01   6.641063E+01   2.930267E+01   6.575675E+01   5.497004E+01   2.474797E+01   1.846252E+01   4.251722E+01   1.374205E+01   1.471336E+01   2.283095E+01   3.025544E+01   2.488229E+01   2.488229E+01   3.706165E+01   3.489856E+01   3.489856E+01   3.725981E+01   1.028251E+02   1.028251E+02   4.206811E+01   4.206811E+01   4.206811E+01   1.670215E+01   1.670215E+01   1.670215E+01   9.598678E+00   9.598678E+00   9.598678E+00   9.598678E+00   9.598678E+00   9.250794E+00   9.250794E+00   9.250794E+00   9.250794E+00   9.250794E+00   1.987222E+01   1.987222E+01   1.987222E+01   1.987222E+01   1.987222E+01   1.987222E+01   1.987222E+01   1.652310E+01   1.652310E+01   1.652310E+01   1.652310E+01   1.652310E+01   1.652310E+01   1.652310E+01   1.652310E+01   1.652310E+01   1.652310E+01   1.141239E+01   1.141239E+01   1.141239E+01   1.141239E+01   1.141239E+01   1.141239E+01   1.141239E+01   1.141239E+01   1.141239E+01   6.042252E+00   6.042252E+00   6.042252E+00   6.042252E+00   6.042252E+00   6.042252E+00   6.042252E+00   4.833148E+00   4.833148E+00   4.833148E+00   4.833148E+00   4.833148E+00   8.937510E+00   8.937510E+00   8.937510E+00   8.937510E+00   2.208912E+01   2.208912E+01   2.208912E+01   9.218404E+00   9.218404E+00   2.773431E+01   2.773431E+01   1.143970E+02   1.143970E+02   7.022993E+01   8.828116E+01   3.169737E+01   3.169737E+01   1.416035E+01   9.005028E+00   1.265802E+01   4.635564E+01   7.031886E+01   8.948901E+01   1.033868E+02   1.248772E+02   3.100312E+01   1.643961E+01   6.270569E+00   2.038089E+01   1.099325E+01   1.381259E+01   6.899438E+00   3.900851E+01   2.609559E+01   4.186476E+01   2.286866E+01   3.668443E+01   6.393558E+01   1.980236E+01   2.547259E+01   2.653581E+01   1.798157E+01   1.901162E+01   1.090376E+01   8.859181E+00   1.710503E+01   1.791227E+01   1.668076E+01   3.091325E+01   6.735101E+01   5.205075E+01   5.978332E+01   3.417561E+01   2.136824E+01   1.432810E+01   5.292359E+01
   3.301087E+00   1.316109E+01   3.174599E+01   3.928745E+01   1.397169E+01   9.101386E+00   1.817698E+01   1.172357E+01   4.394907E+01   8.774905E+01   3.866658E+01   1.227879E+01   1.544367E+01   2.829553E+01   2.847946E+01   3.780435E+01   4.817467E+01   4.628112E+01   2.816263E+01   4.003603E+01   2.412419E+01   1.131266E+01   1.888597E+01   1.963715E+01   9.248644E+00   2.318473E+01   9.403506E+00   3.025510E+01   2.274931E+01   1.905436E+01   2.048773E+01   2.911072E+01   2.493031E+01   7.237534E+00   1.602170E+01   1.379712E+01   4.160260E+01   4.153566E+01   5.089671E+01   2.208621E+01   6.655568E+00   9.358553E+00   8.007645E+00   9.676228E+00   3.781339E+01   4.591087E+01   2.888221E+01   1.700063E+01   1.383879E+01   1.263068E+01   1.223398E+01   1.682481E+01   3.958152E+01   3.547419E+01   4.767244E+01   5.584309E+01   1.764844E+02   4.371221E+01   4.084202E+01   7.109002E+01   2.453823E+02   2.646461E+02   6.108798E+01   4.421777E+01   4.216973E+01   1.340490E+01   1.483474E+01   1.366247E+01   5.753362E+01   6.296846E+01   1.828883E+01   4.768275E+01   4.977819E+01   1.000457E+01   2.198288E+01   2.289898E+01   4.718571E+01   7.525473E+01   7.275674E+01   7.186356E+01   1.388881E+02   6.954511E+01   5.624057E+01   3.068291E+01   1.740154E+01   1.672504E+01   2.267623E+01   2.494805E+01   3.125793E+01   2.524557E+01   2.524557E+01   4.064058E+01   5.132336E+01   5.132336E+01   4.472840E+01   6.841908E+01   6.841908E+01   1.933136E+01   1.933136E+01   1.933136E+01   1.468659E+01   1.468659E+01   1.468659E+01   1.012698E+01   1.012698E+01   1.012698E+01   1.012698E+01   1.012698E+01   1.277758E+01   1.277758E+01   1.277758E+01   1.277758E+01   1.277758E+01   3.414191E+01   3.414191E+01   3.414191E+01   3.414191E+01   3.414191E+01   3.414191E+01   3.414191E+01   3.124922E+01   3.124922E+01   3.124922E+01   3.124922E+01   3.124922E+01   3.124922E+01   3.124922E+01   3.124922E+01   3.124922E+01   3.124922E+01   4.588011E+00   4.588011E+00   4.588011E+00   4.588011E+00   4.588011E+00   4.588011E+00   4.588011E+00   4.588011E+00   4.588011E+00   6.847278E+00   6.847278E+00   6.847278E+00   6.847278E+00   6.847278E+00   6.847278E+00   6.847278E+00   3.474758E+00   3.474758E+00   3.474758E+00   3.474758E+00   3.474758E+00   1.139418E+01   1.139418E+01   1.139418E+01   1.139418E+01   3.440699E+01   3.440699E+01   3.440699E+01   1.084872E+01   1.084872E+01   1.925423E+01   1.925423E+01   6.004010E+01   6.004010E+01   2.243515E+01   4.827971E+01   6.053772E+01   6.053772E+01   1.549735E+01   1.527661E+01   1.418057E+01   3.255420E+01   5.620691E+01   6.010791E+01   1.264221E+02   6.455958E+01   2.025319E+01   6.817584E+00   5.187600E+00   2.292146E+01   8.463593E+00   2.564126E+01   2.047050E+01   5.752025E+01   2.408415E+01   4.094242E+01   2.337315E+01   3.665971E+01   9.861791E+01   1.387547E+01   3.828670E+01   2.642143E+01   3.246703E+01   1.301452E+01   1.027320E+01   8.319887E+00   1.450594E+01   2.895031E+01   6.738335E+01   6.840213E+01   8.880798E+01   3.988724E+01   9.980163E+01   7.399321E+01   4.316657E+01   3.079638E+01   2.699737E+01
   5.924967E+00   1.312090E+01   3.770744E+01   6.945834E+01   2.260393E+01   1.307993E+01   1.965018E+01   2.806225E+01   3.810379E+01   6.997263E+01   3.612229E+01   4.181280E+01   3.425630E+01   4.072435E+01   9.463781E+01   7.027011E+01   4.651730E+01   1.757001E+01   1.155008E+01   2.976327E+01   3.556593E+01   1.347214E+01   4.133607E+01   3.132626E+01   1.168667E+01   2.500285E+01   8.492502E+00   1.979640E+01   2.158844E+01   4.295797E+01   5.161054E+01   2.528648E+01   8.874924E+00   3.824482E+00   1.551358E+01   1.844761E+01   4.637995E+01   1.952653E+01   4.779567E+01   3.546680E+01   6.155102E+00   1.115916E+01   1.595007E+01   2.343322E+01   4.857901E+01   2.138171E+01   1.366602E+01   2.347480E+01   7.430656E+00   5.375199E+00   1.216717E+01   1.652645E+01   3.991581E+01   4.201303E+01   6.551276E+01   8.623553E+01   1.023529E+02   4.742344E+01   1.010040E+02   9.626046E+01   2.945367E+02   1.017949E+02   3.058112E+01   2.406296E+01   2.584146E+01   2.408710E+01   1.897954E+01   2.771400E+01   3.447976E+01   2.844680E+01   2.411734E+01   5.224959E+01   4.976670E+01   1.298794E+01   3.700490E+01   2.899460E+01   5.693251E+01   8.444408E+01   6.546346E+01   4.943436E+01   1.208652E+02   1.098819E+02   4.316652E+01   3.503286E+01   2.145953E+01   1.889475E+01   4.296420E+01   4.356530E+01   7.464105E+01   7.075860E+01   7.075860E+01   7.853880E+01   5.645980E+01   5.645980E+01   7.073882E+01   4.821125E+01   4.821125E+01   2.329551E+01   2.329551E+01   2.329551E+01   2.187930E+01   2.187930E+01   2.187930E+01   1.624799E+01   1.624799E+01   1.624799E+01   1.624799E+01   1.624799E+01   9.407464E+00   9.407464E+00   9.407464E+00   9.407464E+00   9.407464E+00   3.128147E+01   3.128147E+01   3.128147E+01   3.128147E+01   3.128147E+01   3.128147E+01   3.128147E+01   2.007778E+01   2.007778E+01   2.007778E+01   2.007778E+01   2.007778E+01   2.007778E+01   2.007778E+01   2.007778E+01   2.007778E+01   2.007778E+01   6.757489E+00   6.757489E+00   6.757489E+00   6.757489E+00   6.757489E+00   6.757489E+00   6.757489E+00   6.757489E+00   6.757489E+00   6.136719E+00   6.136719E+00   6.136719E+00   6.136719E+00   6.136719E+00   6.136719E+00   6.136719E+00   6.854455E+00   6.854455E+00   6.854455E+00   6.854455E+00   6.854455E+00   1.335316E+01   1.335316E+01   1.335316E+01   1.335316E+01   1.393583E+01   1.393583E+01   1.393583E+01   4.130273E+01   4.130273E+01   2.666640E+01   2.666640E+01   2.382881E+01   2.382881E+01   1.632169E+01   3.610452E+01   2.792468E+01   2.792468E+01   1.292106E+01   1.430796E+01   1.023671E+01   4.528799E+01   5.864994E+01   1.187204E+02   1.285849E+02   4.865880E+01   1.738354E+01   9.923513E+00   4.937360E+00   1.440757E+01   1.222437E+01   1.558519E+01   1.911861E+01   4.222440E+01   4.346667E+01   6.161511E+01   4.690800E+01   2.565634E+01   4.608855E+01   4.230890E+01   3.445432E+01   2.467048E+01   1.845372E+01   2.054492E+01   9.710306E+00   6.259291E+00   1.733024E+01   3.489719E+01   5.019804E+01   7.014687E+01   5.430561E+01   5.423981E+01   1.246297E+02   3.285291E+01   4.884462E+01   1.671778E+01   9.508774E+00
   4.907481E+00   1.238569E+01   3.301582E+01   5.047432E+01   2.657750E+01   1.504893E+01   2.969612E+01   2.666520E+01   3.938194E+01   6.155930E+01   3.165715E+01   8.985217E+01   8.210086E+01   1.011515E+02   5.996249E+01   5.617586E+01   3.118790E+01   1.835076E+01   1.178142E+01   2.134138E+01   2.124506E+01   2.360458E+01   2.888549E+01   8.517309E+01   3.054520E+01   3.306166E+01   2.565034E+01   1.892970E+01   4.944129E+01   7.284388E+01   9.166297E+01   4.673271E+01   1.374323E+01   6.023300E+00   9.613876E+00   1.841665E+01   5.360323E+01   1.721640E+01   1.542316E+01   1.807484E+01   9.999245E+00   1.703799E+01   2.025315E+01   2.176909E+01   2.679541E+01   1.611932E+01   1.111174E+01   3.376619E+01   6.507535E+00   5.481694E+00   2.929674E+01   3.952233E+01   3.027952E+01   3.109526E+01   5.918272E+01   6.015895E+01   8.379321E+01   4.698100E+01   2.388341E+02   2.093005E+02   2.277315E+02   1.320572E+02   4.775432E+01   2.615004E+01   4.494579E+01   4.474313E+01   2.043597E+01   3.339672E+01   3.835194E+01   1.761327E+01   3.448721E+01   3.433959E+01   1.900555E+01   1.644823E+01   1.545216E+01   3.817904E+01   3.167756E+01   1.651406E+02   4.823767E+01   5.623505E+01   1.205501E+02   1.752992E+02   4.193931E+01   3.481513E+01   4.419690E+01   9.822561E+00   1.936356E+01   2.727493E+01   4.148986E+01   4.625171E+01   4.625171E+01   9.740106E+01   6.510263E+01   6.510263E+01   7.702621E+01   5.993711E+01   5.993711E+01   4.140606E+01   4.140606E+01   4.140606E+01   2.026299E+01   2.026299E+01   2.026299E+01   1.966186E+01   1.966186E+01   1.966186E+01   1.966186E+01   1.966186E+01   1.579536E+01   1.579536E+01   1.579536E+01   1.579536E+01   1.579536E+01   1.678647E+01   1.678647E+01   1.678647E+01   1.678647E+01   1.678647E+01   1.678647E+01   1.678647E+01   2.336816E+01   2.336816E+01   2.336816E+01   2.336816E+01   2.336816E+01   2.336816E+01   2.336816E+01   2.336816E+01   2.336816E+01   2.336816E+01   4.947911E+00   4.947911E+00   4.947911E+00   4.947911E+00   4.947911E+00   4.947911E+00   4.947911E+00   4.947911E+00   4.947911E+00   5.010304E+00   5.010304E+00   5.010304E+00   5.010304E+00   5.010304E+00   5.010304E+00   5.010304E+00   1.353543E+01   1.353543E+01   1.353543E+01   1.353543E+01   1.353543E+01   2.321138E+01   2.321138E+01   2.321138E+01   2.321138E+01   2.264351E+01   2.264351E+01   2.264351E+01   1.413687E+01   1.413687E+01   1.948982E+01   1.948982E+01   7.728718E+00   7.728718E+00   1.456914E+01   2.041987E+01   1.379672E+01   1.379672E+01   6.243922E+00   9.638518E+00   1.924327E+01   2.172573E+01   3.834375E+01   9.996853E+01   9.509370E+01   5.205487E+01   1.785014E+01   1.946005E+01   5.354701E+00   1.451178E+01   2.175934E+01   1.343407E+01   1.895017E+01   3.068261E+01   5.014085E+01   3.023691E+01   4.206185E+01   3.096641E+01   5.074636E+01   3.428366E+01   6.419768E+01   1.372400E+01   2.059167E+01   1.925677E+01   1.710933E+01   1.369839E+01   5.466359E+01   5.492977E+01   1.276058E+02   1.445015E+02   4.103386E+01   6.561646E+01   4.397493E+01   4.144890E+01   3.261351E+01   2.051291E+01   1.033924E+01
   9.786359E+00   1.341120E+01   2.326433E+01   3.096693E+01   1.506728E+01   2.683884E+01   4.891233E+01   2.628005E+01   3.643128E+01   9.534348E+01   6.010689E+01   1.052106E+02   1.745149E+02   7.165630E+01   1.088164E+02   3.098591E+01   5.058823E+01   4.931981E+01   7.515938E+00   1.073091E+01   2.542357E+01   3.854818E+01   3.106699E+01   2.796148E+01   4.489959E+01   2.663989E+01   1.840160E+01   3.258919E+01   6.207711E+01   4.350987E+01   6.886745E+01   8.470354E+01   1.384088E+01   1.598336E+01   2.185214E+01   1.510741E+01   2.974260E+01   3.163319E+01   1.239527E+01   7.884836E+00   5.820679E+00   1.789743E+01   2.213999E+01   1.932071E+01   1.776187E+01   1.503667E+01   1.374690E+01   3.484689E+01   5.909039E+00   6.704907E+00   2.073914E+01   3.907780E+01   2.277419E+01   7.407253E+01   5.757303E+01   4.517569E+01   5.056610E+01   3.804890E+01   1.453941E+02   3.110388E+02   3.273372E+02   2.740225E+02   6.447350E+01   4.400396E+01   9.494027E+01   6.209015E+01   3.443653E+01   4.260974E+01   3.668862E+01   1.992893E+01   7.505702E+00   1.670653E+01   1.701483E+01   1.685729E+01   3.129394E+01   5.632847E+01   4.402299E+01   1.211200E+02   5.288747E+01   5.329458E+01   1.581682E+02   1.582881E+02   3.067983E+01   3.321748E+01   1.427727E+01   9.044148E+00   1.876640E+01   2.013028E+01   6.739773E+01   1.870129E+01   1.870129E+01   3.646904E+01   7.621103E+01   7.621103E+01   1.059999E+02   6.288567E+01   6.288567E+01   7.119277E+01   7.119277E+01   7.119277E+01   8.102481E+01   8.102481E+01   8.102481E+01   2.044490E+01   2.044490E+01   2.044490E+01   2.044490E+01   2.044490E+01   1.057464E+01   1.057464E+01   1.057464E+01   1.057464E+01   1.057464E+01   2.169615E+01   2.169615E+01   2.169615E+01   2.169615E+01   2.169615E+01   2.169615E+01   2.169615E+01   2.908111E+01   2.908111E+01   2.908111E+01   2.908111E+01   2.908111E+01   2.908111E+01   2.908111E+01   2.908111E+01   2.908111E+01   2.908111E+01   6.089334E+00   6.089334E+00   6.089334E+00   6.089334E+00   6.089334E+00   6.089334E+00   6.089334E+00   6.089334E+00   6.089334E+00   4.160526E+00   4.160526E+00   4.160526E+00   4.160526E+00   4.160526E+00   4.160526E+00   4.160526E+00   2.736642E+01   2.736642E+01   2.736642E+01   2.736642E+01   2.736642E+01   8.260831E+01   8.260831E+01   8.260831E+01   8.260831E+01   3.713849E+01   3.713849E+01   3.713849E+01   2.480002E+01   2.480002E+01   3.012314E+01   3.012314E+01   8.734031E+00   8.734031E+00   1.451692E+01   1.762869E+01   1.241511E+01   1.241511E+01   1.711219E+01   3.569324E+01   1.743473E+01   2.606562E+01   2.997125E+01   3.179738E+01   1.265782E+02   5.826365E+01   1.312958E+01   9.858146E+00   1.231999E+01   1.201256E+01   1.352507E+01   1.125740E+01   2.070266E+01   3.176431E+01   2.896677E+01   2.358978E+01   8.575197E+01   2.437024E+01   3.588677E+01   4.536966E+01   6.273848E+01   5.190582E+01   3.434641E+01   2.880227E+01   2.182658E+01   2.152819E+01   1.313884E+02   8.431322E+01   1.518953E+02   5.211323E+01   2.604772E+01   4.943747E+01   3.877699E+01   1.741688E+01   2.542446E+01   9.190237E+00   1.136712E+01