# LPF package for  MODFLOW-2005, generated by Flopy.
        53    -1E+30         0  
         1
         0
   0.000000E+00
         0
         0
INTERNAL               1 (207E15.6) -1 #hk layer 1                    
   7.691299E+01   9.330899E+01   4.771111E+01   2.895372E+01   6.193260E+01   8.995625E+01   2.586878E+01   8.797503E+01   1.388890E+02   1.954011E+02   8.877822E+01   2.222573E+02   1.449505E+02   6.548770E+01   2.087361E+01   2.964139E+01   1.131636E+02   3.282971E+02   1.304669E+02   1.094720E+02   7.115527E+01   4.615409E+01   5.451519E+01   3.551947E+01   1.544038E+01   3.694490E+01   1.753622E+02   1.639229E+02   8.885941E+01   1.533800E+02   9.496433E+01   4.905980E+01   6.466685E+01   7.090224E+01   6.379627E+01   1.218897E+02   5.058075E+01   3.616304E+01   6.057087E+01   1.159923E+02   6.507713E+01   7.817520E+01   1.691527E+02   2.179046E+02   2.014554E+02   6.762867E+01   3.911797E+01   9.193453E+01   1.233124E+02   2.058034E+02   1.972996E+02   9.424660E+01   1.115390E+02   1.113458E+02   8.053808E+01   3.028657E+01   6.260997E+01   7.463027E+01   3.752336E+01   1.639168E+01   2.071352E+01   1.498174E+01   2.029201E+01   2.465525E+01   1.321138E+02   4.293894E+02   3.413918E+02   2.687086E+02   2.043736E+02   2.905201E+02   1.617077E+02   4.333565E+02   3.355943E+02   1.025417E+02   5.356496E+01   2.255636E+01   1.491640E+01   3.827586E+01   4.424553E+01   3.097909E+01   4.552422E+01   8.916281E+01   9.600465E+01   9.420796E+01   9.155587E+01   3.683034E+01   7.005004E+01   1.019213E+02   1.479545E+02   5.038954E+01   5.038954E+01   1.257691E+02   8.341189E+01   8.341189E+01   5.908414E+01   4.383340E+01   4.383340E+01   5.378945E+01   5.378945E+01   5.378945E+01   4.914089E+01   4.914089E+01   4.914089E+01   1.149403E+01   1.149403E+01   1.149403E+01   1.149403E+01   1.149403E+01   3.620227E+01   3.620227E+01   3.620227E+01   3.620227E+01   3.620227E+01   5.697223E+01   5.697223E+01   5.697223E+01   5.697223E+01   5.697223E+01   5.697223E+01   5.697223E+01   4.939809E+01   4.939809E+01   4.939809E+01   4.939809E+01   4.939809E+01   4.939809E+01   4.939809E+01   4.939809E+01   4.939809E+01   4.939809E+01   4.818612E+01   4.818612E+01   4.818612E+01   4.818612E+01   4.818612E+01   4.818612E+01   4.818612E+01   4.818612E+01   4.818612E+01   3.615287E+01   3.615287E+01   3.615287E+01   3.615287E+01   3.615287E+01   3.615287E+01   3.615287E+01   5.060397E+01   5.060397E+01   5.060397E+01   5.060397E+01   5.060397E+01   3.931118E+01   3.931118E+01   3.931118E+01   3.931118E+01   4.359752E+01   4.359752E+01   4.359752E+01   7.276556E+01   7.276556E+01   5.567428E+01   5.567428E+01   5.806114E+01   5.806114E+01   6.373875E+01   1.337122E+02   1.788260E+02   1.788260E+02   6.757555E+01   1.967235E+02   1.438158E+02   2.405483E+02   6.527172E+02   1.437222E+02   1.045137E+02   4.287599E+01   9.572742E+01   1.294625E+02   3.667120E+02   1.575926E+02   2.879856E+02   2.824211E+02   2.021181E+02   2.969764E+02   5.339542E+02   2.309178E+02   4.828979E+01   3.988860E+01   2.845333E+01   3.603581E+01   5.791248E+01   6.842356E+01   1.943634E+02   1.284196E+02   2.730894E+02   2.240013E+02   1.122692E+02   5.980545E+01   1.071778E+02   9.790551E+01   1.134206E+02   9.453243E+01   7.484380E+01   3.673292E+01   2.300512E+01   7.766965E+01   7.195635E+01
   5.991211E+01   3.575928E+01   3.992857E+01   4.865131E+01   4.357639E+01   5.388038E+01   6.964165E+01   4.996435E+01   1.236578E+02   1.833533E+02   1.118498E+02   4.042442E+02   1.254364E+02   5.934552E+01   2.326777E+01   1.454873E+01   5.688468E+01   1.898778E+02   1.435876E+02   1.570413E+02   9.284460E+01   7.172362E+01   9.529720E+01   5.584620E+01   2.480762E+01   4.914492E+01   1.724040E+02   6.657660E+01   9.837631E+01   9.296220E+01   7.740489E+01   3.617945E+01   4.047389E+01   7.203371E+01   1.103678E+02   1.876719E+02   6.478542E+01   3.335948E+01   9.490219E+01   1.303271E+02   5.798518E+01   1.600928E+02   2.399154E+02   1.803057E+02   2.142798E+02   6.381586E+01   8.698238E+01   8.399678E+01   1.980454E+02   1.670444E+02   1.851606E+02   1.495949E+02   1.629178E+02   1.895159E+02   6.636054E+01   2.154153E+01   2.711188E+01   5.225724E+01   4.164106E+01   1.387557E+01   1.715859E+01   1.896923E+01   2.558424E+01   3.463788E+01   1.765240E+02   3.795285E+02   6.323038E+02   6.014062E+02   3.546826E+02   5.374127E+02   4.235886E+02   1.422886E+03   2.219313E+02   1.962633E+02   5.965506E+01   3.463390E+01   2.095487E+01   5.809784E+01   3.344025E+01   2.237535E+01   5.019124E+01   1.079830E+02   4.613807E+01   5.745023E+01   8.922740E+01   3.031144E+01   1.050915E+02   1.375096E+02   1.282882E+02   6.827890E+01   6.827890E+01   1.218947E+02   1.483128E+02   1.483128E+02   1.180763E+02   8.034676E+01   8.034676E+01   1.637189E+02   1.637189E+02   1.637189E+02   8.539583E+01   8.539583E+01   8.539583E+01   8.268396E+00   8.268396E+00   8.268396E+00   8.268396E+00   8.268396E+00   3.726183E+01   3.726183E+01   3.726183E+01   3.726183E+01   3.726183E+01   5.103502E+01   5.103502E+01   5.103502E+01   5.103502E+01   5.103502E+01   5.103502E+01   5.103502E+01   7.099692E+01   7.099692E+01   7.099692E+01   7.099692E+01   7.099692E+01   7.099692E+01   7.099692E+01   7.099692E+01   7.099692E+01   7.099692E+01   5.233688E+01   5.233688E+01   5.233688E+01   5.233688E+01   5.233688E+01   5.233688E+01   5.233688E+01   5.233688E+01   5.233688E+01   7.476019E+01   7.476019E+01   7.476019E+01   7.476019E+01   7.476019E+01   7.476019E+01   7.476019E+01   3.395786E+01   3.395786E+01   3.395786E+01   3.395786E+01   3.395786E+01   2.592609E+01   2.592609E+01   2.592609E+01   2.592609E+01   3.012479E+01   3.012479E+01   3.012479E+01   5.294525E+01   5.294525E+01   5.114880E+01   5.114880E+01   1.060548E+02   1.060548E+02   5.638898E+01   1.453682E+02   1.091515E+02   1.091515E+02   9.390240E+01   1.316131E+02   1.640793E+02   2.389790E+02   5.227786E+02   1.724048E+02   6.606440E+01   4.827501E+01   1.041764E+02   1.313788E+02   2.023004E+02   2.134800E+02   5.990056E+02   2.765044E+02   1.847238E+02   3.917544E+02   2.740231E+02   1.521157E+02   3.420940E+01   4.213423E+01   5.100888E+01   6.264449E+01   1.075490E+02   2.349096E+02   2.164951E+02   1.289149E+02   3.427216E+02   2.701247E+02   2.876972E+02   1.059301E+02   1.115330E+02   1.465739E+02   7.071577E+01   6.406328E+01   6.241967E+01   2.935502E+01   5.187453E+01   2.711373E+01   4.692996E+01
   3.091789E+01   3.885676E+01   7.136420E+01   8.692325E+01   5.267687E+01   8.742598E+01   5.118687E+01   5.419023E+01   1.073774E+02   1.562088E+02   6.280813E+01   1.266560E+02   2.805064E+01   1.889275E+01   1.088193E+01   1.644330E+01   6.765523E+01   9.153729E+01   1.950513E+02   2.141783E+02   9.562868E+01   1.009213E+02   2.737753E+01   4.584775E+01   5.735566E+01   3.305225E+01   6.336903E+01   4.039368E+01   6.167460E+01   1.043100E+02   1.381052E+02   4.664310E+01   3.356047E+01   2.035724E+02   1.310193E+02   1.287319E+02   4.431950E+01   2.847417E+01   1.242268E+02   6.467991E+01   5.602304E+01   1.399664E+02   8.608827E+01   1.842733E+02   1.997519E+02   6.570023E+01   1.304896E+02   9.019846E+01   1.407213E+02   1.068269E+02   1.279411E+02   7.440940E+01   1.855747E+02   1.122859E+02   4.958903E+01   2.111755E+01   1.266231E+01   3.229296E+01   9.384528E+01   2.699228E+01   1.416674E+01   1.532454E+01   2.088251E+01   4.309229E+01   9.823767E+01   4.157237E+02   4.376685E+02   8.137776E+02   6.078342E+02   3.496517E+02   7.864763E+02   4.040826E+02   2.313423E+02   1.834441E+02   1.009301E+02   5.368151E+01   4.107338E+01   7.155960E+01   3.102214E+01   3.615679E+01   9.039793E+01   7.786250E+01   3.893057E+01   6.949561E+01   5.954773E+01   1.328205E+01   6.843727E+01   2.380532E+02   7.258112E+01   6.340359E+01   6.340359E+01   9.039146E+01   7.729047E+01   7.729047E+01   1.486158E+02   1.359566E+02   1.359566E+02   1.111526E+02   1.111526E+02   1.111526E+02   3.918778E+01   3.918778E+01   3.918778E+01   1.221937E+01   1.221937E+01   1.221937E+01   1.221937E+01   1.221937E+01   1.824349E+01   1.824349E+01   1.824349E+01   1.824349E+01   1.824349E+01   5.195697E+01   5.195697E+01   5.195697E+01   5.195697E+01   5.195697E+01   5.195697E+01   5.195697E+01   5.167925E+01   5.167925E+01   5.167925E+01   5.167925E+01   5.167925E+01   5.167925E+01   5.167925E+01   5.167925E+01   5.167925E+01   5.167925E+01   8.906481E+01   8.906481E+01   8.906481E+01   8.906481E+01   8.906481E+01   8.906481E+01   8.906481E+01   8.906481E+01   8.906481E+01   4.724577E+01   4.724577E+01   4.724577E+01   4.724577E+01   4.724577E+01   4.724577E+01   4.724577E+01   3.406285E+01   3.406285E+01   3.406285E+01   3.406285E+01   3.406285E+01   1.909866E+01   1.909866E+01   1.909866E+01   1.909866E+01   2.453915E+01   2.453915E+01   2.453915E+01   2.702974E+01   2.702974E+01   5.942168E+01   5.942168E+01   1.029436E+02   1.029436E+02   4.222670E+01   9.484513E+01   5.848353E+01   5.848353E+01   2.063204E+02   2.306424E+02   1.596280E+02   3.676884E+02   5.545971E+02   1.344351E+02   7.424018E+01   3.244615E+01   8.638416E+01   1.253081E+02   1.208768E+02   3.626492E+02   2.813128E+02   2.623437E+02   1.317835E+02   4.486347E+02   1.490401E+02   1.065353E+02   8.824057E+01   6.692696E+01   8.841332E+01   3.958842E+01   7.366200E+01   1.248248E+02   2.626911E+02   2.111683E+02   1.331609E+02   2.368728E+02   2.320863E+02   4.893947E+01   2.820297E+02   1.263803E+02   6.422993E+01   1.396818E+02   6.748423E+01   4.472497E+01   5.291837E+01   3.213610E+01   3.388163E+01
   3.881834E+01   4.155923E+01   9.045145E+01   9.412395E+01   1.589709E+02   6.438379E+01   2.706256E+01   5.179770E+01   9.610135E+01   2.154265E+02   5.691323E+01   8.367010E+01   1.711824E+01   2.102451E+01   4.259573E+00   8.199967E+00   3.278090E+01   1.068378E+02   1.170619E+02   1.722714E+02   8.566656E+01   1.531151E+02   3.487606E+01   9.971267E+01   4.956717E+01   3.496652E+01   6.380462E+01   5.067653E+01   4.321124E+01   6.812794E+01   1.011781E+02   5.781544E+01   1.079942E+02   2.204250E+02   3.188011E+02   1.301303E+02   8.399661E+01   2.104174E+01   8.053886E+01   5.441394E+01   3.409381E+01   1.439585E+02   6.020124E+01   1.039399E+02   3.215703E+02   9.234134E+01   1.203913E+02   8.270263E+01   1.763634E+02   1.751142E+02   1.346991E+02   1.168559E+02   1.372117E+02   4.322932E+01   3.683017E+01   1.621730E+01   9.814032E+00   1.961318E+01   3.008677E+01   2.561177E+01   1.225073E+01   4.419122E+01   2.808823E+01   9.765692E+01   6.389888E+01   1.652441E+02   3.848718E+02   1.669227E+03   4.546198E+02   4.043641E+02   6.538008E+02   4.816219E+02   3.004671E+02   2.017234E+02   1.314882E+02   8.927790E+01   7.050336E+01   6.691422E+01   4.700516E+01   9.343366E+01   7.444501E+01   1.367933E+02   8.240579E+01   9.047552E+01   3.731818E+01   3.263312E+01   1.289803E+02   2.390503E+02   1.236593E+02   9.316734E+01   9.316734E+01   1.883214E+02   8.276637E+01   8.276637E+01   1.163972E+02   8.260130E+01   8.260130E+01   1.422841E+02   1.422841E+02   1.422841E+02   4.174110E+01   4.174110E+01   4.174110E+01   1.371865E+01   1.371865E+01   1.371865E+01   1.371865E+01   1.371865E+01   4.460749E+01   4.460749E+01   4.460749E+01   4.460749E+01   4.460749E+01   4.708749E+01   4.708749E+01   4.708749E+01   4.708749E+01   4.708749E+01   4.708749E+01   4.708749E+01   3.969077E+01   3.969077E+01   3.969077E+01   3.969077E+01   3.969077E+01   3.969077E+01   3.969077E+01   3.969077E+01   3.969077E+01   3.969077E+01   5.252541E+01   5.252541E+01   5.252541E+01   5.252541E+01   5.252541E+01   5.252541E+01   5.252541E+01   5.252541E+01   5.252541E+01   6.801900E+01   6.801900E+01   6.801900E+01   6.801900E+01   6.801900E+01   6.801900E+01   6.801900E+01   2.560942E+01   2.560942E+01   2.560942E+01   2.560942E+01   2.560942E+01   1.398919E+01   1.398919E+01   1.398919E+01   1.398919E+01   2.016749E+01   2.016749E+01   2.016749E+01   2.744711E+01   2.744711E+01   7.560918E+01   7.560918E+01   1.558074E+02   1.558074E+02   1.475950E+02   1.171581E+02   8.132906E+01   8.132906E+01   1.834442E+02   2.976409E+02   9.957481E+01   3.435859E+02   5.641806E+02   1.884085E+02   1.183750E+02   4.338536E+01   1.751315E+02   1.644117E+02   1.176356E+02   1.333509E+02   2.265186E+02   3.645323E+02   3.173001E+02   4.064703E+02   1.474725E+02   9.881134E+01   7.974786E+01   4.946183E+01   6.398960E+01   5.431237E+01   5.444316E+01   4.727539E+01   2.799211E+02   2.593904E+02   3.237394E+02   1.615253E+02   1.145024E+02   2.808024E+02   3.405909E+02   1.135131E+02   1.126602E+02   1.328224E+02   1.110293E+02   4.172229E+01   5.054955E+01   3.014193E+01   1.365037E+01
   5.536595E+01   6.983747E+01   1.097174E+02   1.147593E+02   1.191929E+02   7.339935E+01   7.658456E+01   4.731517E+01   1.380650E+02   3.101195E+02   1.019971E+02   3.243927E+01   2.055041E+01   2.026108E+01   7.478724E+00   1.486241E+01   3.888372E+01   4.731015E+01   4.672076E+01   9.755256E+01   8.701193E+01   1.743451E+02   2.162872E+02   6.898949E+01   5.754165E+01   3.667532E+01   7.656636E+01   2.784356E+01   4.059509E+01   4.288713E+01   9.024722E+01   9.317258E+01   1.433569E+02   2.754477E+02   2.042102E+02   1.246383E+02   1.526031E+02   3.145230E+01   1.220585E+02   9.130772E+01   2.362371E+01   5.838854E+01   5.496149E+01   4.393219E+01   2.554448E+02   3.022516E+02   1.049205E+02   5.336163E+01   3.397913E+02   2.594875E+02   1.987792E+02   3.843356E+01   4.571741E+01   7.432254E+01   4.788651E+01   2.218415E+01   4.818866E+00   1.458724E+01   3.788836E+01   2.437551E+01   2.862106E+01   6.590535E+01   3.805656E+01   3.723891E+01   6.318180E+01   1.924594E+02   2.975268E+02   6.460706E+02   4.526996E+02   1.616267E+02   4.620928E+02   8.418488E+02   5.365460E+02   1.761556E+02   2.169595E+02   2.778880E+02   1.861836E+02   1.177299E+02   1.016193E+02   5.609191E+01   1.263707E+02   2.908616E+02   7.358705E+01   4.302599E+01   6.469071E+01   2.210244E+01   1.415339E+02   1.553897E+02   1.058294E+02   1.676541E+02   1.676541E+02   1.569734E+02   6.838471E+01   6.838471E+01   8.185722E+01   1.213329E+02   1.213329E+02   1.207838E+02   1.207838E+02   1.207838E+02   2.408850E+01   2.408850E+01   2.408850E+01   1.680045E+01   1.680045E+01   1.680045E+01   1.680045E+01   1.680045E+01   3.547120E+01   3.547120E+01   3.547120E+01   3.547120E+01   3.547120E+01   3.935903E+01   3.935903E+01   3.935903E+01   3.935903E+01   3.935903E+01   3.935903E+01   3.935903E+01   6.838998E+01   6.838998E+01   6.838998E+01   6.838998E+01   6.838998E+01   6.838998E+01   6.838998E+01   6.838998E+01   6.838998E+01   6.838998E+01   6.760954E+01   6.760954E+01   6.760954E+01   6.760954E+01   6.760954E+01   6.760954E+01   6.760954E+01   6.760954E+01   6.760954E+01   5.040524E+01   5.040524E+01   5.040524E+01   5.040524E+01   5.040524E+01   5.040524E+01   5.040524E+01   2.781377E+01   2.781377E+01   2.781377E+01   2.781377E+01   2.781377E+01   1.700882E+01   1.700882E+01   1.700882E+01   1.700882E+01   3.280909E+01   3.280909E+01   3.280909E+01   3.988825E+01   3.988825E+01   8.309367E+01   8.309367E+01   1.524916E+02   1.524916E+02   2.180010E+02   2.052226E+02   9.176900E+01   9.176900E+01   1.200619E+02   6.450580E+01   1.343977E+02   1.171099E+02   5.234991E+02   1.718993E+02   2.697864E+02   8.363358E+01   1.343213E+02   6.988193E+01   1.625867E+02   5.743564E+01   2.759283E+02   5.054456E+02   2.617965E+02   2.720520E+02   2.112885E+02   1.123565E+02   1.128783E+02   6.053773E+01   7.858255E+01   7.327137E+01   3.794371E+01   4.532381E+01   1.367006E+02   8.562502E+01   1.934090E+02   1.245821E+02   1.696556E+02   9.899487E+01   3.310375E+02   1.782873E+02   1.769302E+02   9.703944E+01   7.298261E+01   1.127082E+02   7.803555E+01   3.599834E+01   2.189704E+01
   7.521067E+01   5.648835E+01   1.167549E+02   1.438737E+02   1.643366E+02   8.519984E+01   4.269572E+01   4.655503E+01   2.461170E+02   3.509966E+02   3.235576E+01   2.328033E+01   5.445690E+01   1.768002E+01   1.324669E+01   1.666962E+01   3.111044E+01   7.785745E+01   1.205803E+02   1.017804E+02   6.024466E+01   4.015997E+02   1.868428E+02   9.160139E+01   1.295926E+02   1.055842E+02   7.627756E+01   3.295771E+01   5.674698E+01   4.847068E+01   3.488761E+01   3.103862E+01   1.285034E+02   1.437854E+02   2.115661E+02   1.765127E+02   1.344606E+02   1.536516E+02   1.214871E+02   2.556772E+01   1.048838E+01   4.187304E+01   3.229477E+01   4.256966E+01   2.756053E+02   1.414528E+02   6.035842E+01   8.602254E+01   2.155498E+02   2.408277E+02   1.605941E+02   2.764040E+01   6.959804E+01   5.555805E+01   8.830006E+01   2.224471E+01   2.351365E+01   4.007896E+01   3.993742E+01   4.268482E+01   5.837867E+01   3.665596E+01   1.696501E+01   6.719542E+01   1.047033E+02   3.714271E+02   3.940868E+02   3.350162E+02   2.509056E+02   1.534729E+02   4.593826E+02   5.939913E+02   1.842099E+02   1.800988E+02   2.528133E+02   1.499609E+02   1.249813E+02   8.797365E+01   4.218441E+01   3.543675E+01   1.450874E+02   3.400349E+02   9.592683E+01   6.229383E+01   8.559573E+01   5.582607E+01   1.957239E+02   1.338934E+02   6.602638E+01   1.489827E+02   1.489827E+02   1.123595E+02   6.241002E+01   6.241002E+01   5.281742E+01   1.550765E+02   1.550765E+02   1.273726E+02   1.273726E+02   1.273726E+02   2.593688E+01   2.593688E+01   2.593688E+01   1.010099E+01   1.010099E+01   1.010099E+01   1.010099E+01   1.010099E+01   2.402028E+01   2.402028E+01   2.402028E+01   2.402028E+01   2.402028E+01   7.742126E+01   7.742126E+01   7.742126E+01   7.742126E+01   7.742126E+01   7.742126E+01   7.742126E+01   1.235786E+02   1.235786E+02   1.235786E+02   1.235786E+02   1.235786E+02   1.235786E+02   1.235786E+02   1.235786E+02   1.235786E+02   1.235786E+02   1.132317E+02   1.132317E+02   1.132317E+02   1.132317E+02   1.132317E+02   1.132317E+02   1.132317E+02   1.132317E+02   1.132317E+02   2.847547E+01   2.847547E+01   2.847547E+01   2.847547E+01   2.847547E+01   2.847547E+01   2.847547E+01   2.198740E+01   2.198740E+01   2.198740E+01   2.198740E+01   2.198740E+01   2.299443E+01   2.299443E+01   2.299443E+01   2.299443E+01   4.256621E+01   4.256621E+01   4.256621E+01   5.249958E+01   5.249958E+01   1.108100E+02   1.108100E+02   8.607702E+01   8.607702E+01   2.621165E+02   2.947503E+02   4.854715E+02   4.854715E+02   4.132951E+01   1.185102E+02   7.640909E+01   9.098804E+01   3.740225E+02   2.202438E+02   2.095970E+02   2.580597E+02   1.258177E+02   8.084114E+01   1.051540E+02   4.500111E+01   1.507680E+02   3.719317E+02   2.773924E+02   3.181362E+02   4.782888E+02   1.865569E+02   7.142895E+01   5.810802E+01   1.164298E+02   5.972215E+01   3.224085E+01   9.730777E+01   8.738673E+01   3.998678E+01   6.553695E+01   1.705721E+02   1.833791E+02   7.867370E+01   6.038393E+02   6.323679E+02   3.212503E+02   5.418583E+01   7.181538E+01   8.359348E+01   2.242876E+02   4.233747E+01   1.383943E+01
   1.937908E+02   1.326724E+02   1.175888E+02   2.514311E+02   2.156821E+02   1.396919E+02   8.042039E+01   2.513215E+01   9.780403E+01   1.302162E+02   3.423283E+01   6.058570E+01   4.116774E+01   1.695502E+01   1.457489E+01   3.493351E+01   7.053041E+01   2.163192E+02   2.256347E+02   9.699283E+01   4.315926E+01   4.673402E+02   1.347061E+02   1.746725E+02   1.172814E+02   1.506719E+02   1.133872E+02   7.020094E+01   4.627235E+01   3.727727E+01   2.739026E+01   5.595324E+01   1.221617E+02   9.083264E+01   8.084092E+01   1.305345E+02   3.427899E+02   1.701386E+02   1.125758E+02   3.950679E+01   1.167303E+01   2.053192E+01   4.172960E+01   6.113449E+01   1.437891E+02   1.356588E+02   6.250903E+01   1.167538E+02   1.648342E+02   7.089752E+01   1.360647E+02   7.308620E+01   1.774319E+02   1.132271E+02   1.127320E+02   3.336388E+01   4.057299E+01   8.131416E+01   1.438728E+01   6.434013E+01   5.116304E+01   5.007872E+01   4.647770E+01   2.415471E+02   2.556378E+02   1.671495E+02   2.307648E+02   3.575782E+02   1.679847E+02   2.649534E+02   5.284644E+02   3.974579E+02   3.475219E+02   1.915136E+02   1.768942E+02   1.593201E+02   8.174456E+01   1.217088E+02   8.366468E+01   4.254298E+01   9.171650E+01   1.312496E+02   1.332759E+02   1.796038E+02   4.885977E+01   2.680593E+02   3.458707E+02   1.138246E+02   6.155684E+01   2.027024E+02   2.027024E+02   1.079795E+02   5.156104E+01   5.156104E+01   1.248235E+02   3.092410E+02   3.092410E+02   7.873494E+01   7.873494E+01   7.873494E+01   2.976529E+01   2.976529E+01   2.976529E+01   1.700876E+01   1.700876E+01   1.700876E+01   1.700876E+01   1.700876E+01   5.620651E+01   5.620651E+01   5.620651E+01   5.620651E+01   5.620651E+01   1.132305E+02   1.132305E+02   1.132305E+02   1.132305E+02   1.132305E+02   1.132305E+02   1.132305E+02   1.159900E+02   1.159900E+02   1.159900E+02   1.159900E+02   1.159900E+02   1.159900E+02   1.159900E+02   1.159900E+02   1.159900E+02   1.159900E+02   1.631637E+02   1.631637E+02   1.631637E+02   1.631637E+02   1.631637E+02   1.631637E+02   1.631637E+02   1.631637E+02   1.631637E+02   9.920686E+01   9.920686E+01   9.920686E+01   9.920686E+01   9.920686E+01   9.920686E+01   9.920686E+01   4.233708E+01   4.233708E+01   4.233708E+01   4.233708E+01   4.233708E+01   3.517995E+01   3.517995E+01   3.517995E+01   3.517995E+01   4.505642E+01   4.505642E+01   4.505642E+01   2.259061E+02   2.259061E+02   7.530422E+01   7.530422E+01   1.368963E+02   1.368963E+02   2.539620E+02   5.157855E+02   3.308167E+02   3.308167E+02   6.302789E+01   1.044888E+02   9.784045E+01   2.022757E+02   3.331077E+02   2.853710E+02   4.688346E+02   3.415323E+02   2.371104E+02   1.386512E+02   1.080607E+02   3.801104E+01   1.678671E+02   2.563591E+02   1.611986E+02   1.400418E+02   2.835801E+02   2.091917E+02   1.290187E+02   7.819295E+01   1.755939E+02   1.031788E+02   6.277591E+01   8.776275E+01   3.782424E+01   9.477808E+01   6.683521E+01   2.341058E+02   1.079568E+02   1.343521E+02   5.923154E+02   3.427785E+02   1.888294E+02   4.278835E+01   6.341888E+01   8.686283E+01   2.005085E+02   7.987659E+01   3.923766E+01
   1.278392E+02   1.080273E+02   7.590398E+01   9.539709E+01   7.773144E+01   1.306102E+02   5.884832E+01   1.576358E+01   8.325117E+01   1.077918E+02   6.183312E+01   4.246822E+01   3.781059E+01   2.073041E+01   3.469584E+01   1.477103E+02   1.725292E+02   3.186384E+02   2.520877E+02   2.941829E+01   4.396895E+01   2.163888E+02   1.612602E+02   9.398511E+01   2.427305E+02   2.162266E+02   1.130600E+02   5.918908E+01   2.654565E+02   5.464318E+01   2.940010E+01   2.650364E+01   1.063419E+02   1.179664E+02   1.275681E+02   3.932096E+02   3.886002E+02   2.106495E+02   2.881901E+02   4.595120E+01   2.341918E+01   1.952445E+01   7.463534E+01   1.014970E+02   1.173737E+02   2.178846E+02   2.396449E+02   1.101070E+02   1.504606E+02   1.293852E+02   1.056876E+02   1.505313E+02   1.641893E+02   2.378880E+02   8.705879E+01   4.379001E+01   4.252723E+01   5.477967E+01   1.889517E+01   7.307700E+01   3.646918E+01   3.454112E+01   5.136786E+01   1.265355E+02   1.367535E+02   3.481940E+02   1.459288E+02   1.210292E+02   9.774518E+01   1.358033E+02   2.553453E+02   1.992913E+02   2.054624E+02   1.958375E+02   1.647246E+02   6.993714E+01   7.677295E+01   6.441865E+01   6.219886E+01   4.564654E+01   2.479503E+02   1.241569E+02   1.082873E+02   1.457334E+02   3.468849E+01   1.728711E+02   1.468404E+02   1.113266E+02   1.052366E+02   1.433779E+02   1.433779E+02   1.014349E+02   1.335250E+02   1.335250E+02   1.186949E+02   1.739376E+02   1.739376E+02   3.569412E+01   3.569412E+01   3.569412E+01   1.081892E+01   1.081892E+01   1.081892E+01   1.891268E+01   1.891268E+01   1.891268E+01   1.891268E+01   1.891268E+01   8.368027E+01   8.368027E+01   8.368027E+01   8.368027E+01   8.368027E+01   4.132185E+02   4.132185E+02   4.132185E+02   4.132185E+02   4.132185E+02   4.132185E+02   4.132185E+02   1.352102E+02   1.352102E+02   1.352102E+02   1.352102E+02   1.352102E+02   1.352102E+02   1.352102E+02   1.352102E+02   1.352102E+02   1.352102E+02   1.424826E+02   1.424826E+02   1.424826E+02   1.424826E+02   1.424826E+02   1.424826E+02   1.424826E+02   1.424826E+02   1.424826E+02   7.365032E+01   7.365032E+01   7.365032E+01   7.365032E+01   7.365032E+01   7.365032E+01   7.365032E+01   2.354290E+01   2.354290E+01   2.354290E+01   2.354290E+01   2.354290E+01   3.013981E+01   3.013981E+01   3.013981E+01   3.013981E+01   4.022729E+01   4.022729E+01   4.022729E+01   2.115127E+02   2.115127E+02   1.373410E+02   1.373410E+02   1.247717E+02   1.247717E+02   1.607930E+02   6.153303E+02   3.672531E+02   3.672531E+02   1.445939E+02   1.361239E+02   1.338744E+02   1.663034E+02   1.993096E+02   5.349796E+02   3.458259E+02   3.030986E+02   4.298260E+02   1.057634E+02   9.485715E+01   3.781771E+01   2.080853E+02   1.935611E+02   1.288091E+02   9.704881E+01   1.440561E+02   1.190028E+02   1.827161E+02   5.830645E+01   8.496455E+01   1.141027E+02   3.776722E+01   4.967671E+01   2.656384E+01   3.424797E+02   8.285654E+01   1.300061E+02   5.062751E+01   2.176235E+02   3.234009E+02   1.509917E+02   1.259670E+02   1.102222E+02   1.826702E+02   1.617683E+02   1.402985E+02   1.345474E+02   1.242392E+02
   9.915047E+01   1.168867E+02   4.123299E+01   4.282988E+01   8.880957E+01   1.488064E+02   7.666497E+01   7.698479E+01   3.690403E+01   1.091718E+02   8.034944E+01   1.080364E+02   4.100928E+01   6.021736E+01   7.294720E+01   9.485536E+01   1.543548E+02   2.140062E+02   1.073828E+02   3.301823E+01   6.304478E+01   1.256099E+02   1.742441E+02   2.323623E+02   2.902514E+02   2.744573E+02   1.049315E+02   9.417834E+01   5.790411E+02   8.069414E+01   6.949049E+01   4.489061E+01   1.582605E+02   1.926554E+02   2.377706E+02   4.826320E+02   2.005858E+02   2.637288E+02   1.250310E+02   5.322414E+01   3.640866E+01   2.649860E+01   9.404237E+01   8.392223E+01   2.223264E+02   4.052032E+02   1.177651E+02   5.141904E+01   7.905765E+01   1.252647E+02   8.882961E+01   1.124071E+02   6.742449E+01   2.482439E+02   1.556657E+02   1.092363E+02   4.262560E+01   6.938087E+01   1.787521E+01   4.902138E+01   3.367712E+01   4.182637E+01   3.697342E+01   6.274140E+01   7.533656E+01   1.115319E+02   1.974422E+02   6.307040E+01   8.800914E+01   1.400430E+02   1.722581E+02   1.390215E+02   6.405674E+01   1.554146E+02   2.438230E+02   9.018774E+01   4.289337E+01   6.308575E+01   8.133768E+01   4.986568E+01   1.318075E+02   8.636782E+01   1.264040E+02   5.281024E+01   1.951920E+01   8.783303E+01   5.107170E+01   9.536503E+01   4.631396E+01   7.589194E+01   7.589194E+01   1.531391E+02   1.290734E+02   1.290734E+02   4.091029E+01   8.621615E+01   8.621615E+01   5.250938E+01   5.250938E+01   5.250938E+01   1.399321E+01   1.399321E+01   1.399321E+01   3.019157E+01   3.019157E+01   3.019157E+01   3.019157E+01   3.019157E+01   7.189970E+01   7.189970E+01   7.189970E+01   7.189970E+01   7.189970E+01   3.730563E+02   3.730563E+02   3.730563E+02   3.730563E+02   3.730563E+02   3.730563E+02   3.730563E+02   1.124721E+02   1.124721E+02   1.124721E+02   1.124721E+02   1.124721E+02   1.124721E+02   1.124721E+02   1.124721E+02   1.124721E+02   1.124721E+02   8.931044E+01   8.931044E+01   8.931044E+01   8.931044E+01   8.931044E+01   8.931044E+01   8.931044E+01   8.931044E+01   8.931044E+01   4.597139E+01   4.597139E+01   4.597139E+01   4.597139E+01   4.597139E+01   4.597139E+01   4.597139E+01   3.679938E+01   3.679938E+01   3.679938E+01   3.679938E+01   3.679938E+01   2.616208E+01   2.616208E+01   2.616208E+01   2.616208E+01   2.474801E+01   2.474801E+01   2.474801E+01   9.243224E+01   9.243224E+01   1.247363E+02   1.247363E+02   1.036598E+02   1.036598E+02   2.296526E+02   7.183411E+02   6.225436E+02   6.225436E+02   2.861205E+02   3.652723E+02   1.482636E+02   3.203134E+02   3.690519E+02   2.016530E+02   2.580294E+02   2.544601E+02   4.128612E+02   2.087144E+02   1.012645E+02   4.690462E+01   1.337823E+02   1.049317E+02   1.564959E+02   7.471057E+01   5.178766E+01   7.364172E+01   8.128221E+01   5.905709E+01   8.330999E+01   1.219999E+02   7.423098E+01   4.624228E+01   6.475185E+01   2.465733E+02   1.284222E+02   1.901649E+02   1.560334E+02   3.967208E+02   2.258033E+02   4.252104E+02   2.261470E+02   1.710591E+02   3.249867E+02   1.947607E+02   1.253179E+02   1.280992E+02   1.056274E+02