# MPSIM package for MODPATH 7, generated by Flopy.
whpa_mp.mpnam
whpa_mp.mplst
4 2 1 1 1 0
whpa_mp.mpend
whpa_mp.mppth
whpa_mp.timeseries
0
1
0
3
31
1
100 0.3
1
1
1
PG
1
0.0
EXTERNAL pg.sloc
