# LPF package for  MODFLOW-2005, generated by Flopy.
        53    -1E+30         0  
         1
         0
   0.000000E+00
         0
         0
INTERNAL               1 (207E15.6) -1 #hk layer 1                    
   7.671624E-02   1.063851E-01   7.438460E-02   3.714888E-02   4.864624E-02   1.862519E-02   1.930992E-02   3.900028E-02   1.080566E-01   1.054073E-01   1.123361E-01   1.805996E-01   1.446883E-01   1.719291E-01   6.314941E-02   1.163314E-01   2.215874E-01   2.302951E-01   1.900807E-01   8.682837E-02   6.531651E-02   1.185599E-01   1.962088E-01   1.877107E-01   1.355007E-01   5.830353E-02   2.316620E-02   1.072367E-02   1.386479E-02   4.063819E-02   6.948846E-02   4.178637E-02   3.107619E-02   6.093527E-02   3.312570E-02   6.135483E-02   7.288816E-02   8.557601E-02   7.371011E-02   1.198170E-01   1.549671E-01   1.051134E-01   1.059366E-01   1.107546E-01   2.669876E-02   9.640576E-02   2.735129E-02   2.583274E-02   4.381008E-02   5.592686E-02   1.028280E-01   4.639921E-02   4.100090E-02   3.422263E-02   2.337207E-02   9.497416E-02   1.859839E-01   9.386742E-02   1.351864E-01   1.435309E-01   2.092470E-01   2.093685E-01   1.488849E-01   2.836283E-02   2.849249E-02   1.929468E-02   2.503056E-02   1.144277E-02   1.214600E-02   1.321543E-02   3.890019E-02   1.217700E-01   3.304755E-02   3.846495E-02   9.067659E-02   1.918031E-01   8.749255E-02   5.475877E-02   1.413413E-01   6.570450E-02   1.310296E-01   1.191694E-01   7.152649E-02   2.525738E-02   8.115994E-02   2.016806E-01   1.353666E-01   1.117335E-01   1.236326E-01   1.061391E-01   1.061391E-01   3.748130E-02   1.970471E-02   1.970471E-02   1.331404E-02   6.208424E-03   6.208424E-03   1.717773E-02   1.717773E-02   1.717773E-02   1.098926E-01   1.098926E-01   1.098926E-01   1.430290E-01   1.430290E-01   1.430290E-01   1.430290E-01   1.430290E-01   2.458326E-01   2.458326E-01   2.458326E-01   2.458326E-01   2.458326E-01   2.049214E-01   2.049214E-01   2.049214E-01   2.049214E-01   2.049214E-01   2.049214E-01   2.049214E-01   2.487432E-01   2.487432E-01   2.487432E-01   2.487432E-01   2.487432E-01   2.487432E-01   2.487432E-01   2.487432E-01   2.487432E-01   2.487432E-01   1.702907E-01   1.702907E-01   1.702907E-01   1.702907E-01   1.702907E-01   1.702907E-01   1.702907E-01   1.702907E-01   1.702907E-01   3.449521E-02   3.449521E-02   3.449521E-02   3.449521E-02   3.449521E-02   3.449521E-02   3.449521E-02   3.659417E-02   3.659417E-02   3.659417E-02   3.659417E-02   3.659417E-02   4.353608E-02   4.353608E-02   4.353608E-02   4.353608E-02   5.646781E-02   5.646781E-02   5.646781E-02   4.453075E-02   4.453075E-02   7.265762E-02   7.265762E-02   6.601389E-02   6.601389E-02   5.637190E-02   2.122558E-02   5.544700E-02   5.544700E-02   9.766576E-02   9.883465E-02   4.349925E-02   2.336822E-02   1.204182E-02   1.327093E-02   1.414977E-02   1.232789E-02   1.423658E-02   7.722945E-03   2.204041E-02   3.082281E-02   3.244948E-02   7.178083E-02   7.374490E-02   1.782124E-01   1.920785E-01   1.135257E-01   6.658670E-02   5.084832E-02   5.947487E-02   4.253014E-02   1.958486E-01   2.039356E-01   1.281291E-01   4.052425E-02   3.289716E-02   5.227346E-02   1.226153E-01   5.795874E-02   8.098694E-02   1.898250E-02   1.575901E-02   1.618950E-02   4.796917E-02   6.245213E-02   8.885749E-02   8.353786E-02   2.172177E-01
   5.114722E-02   6.204094E-02   4.213623E-02   4.676017E-02   4.678809E-02   2.291689E-02   2.260739E-02   5.119687E-02   8.329925E-02   1.299604E-01   1.947364E-01   1.231262E-01   1.367923E-01   1.569525E-01   7.401722E-02   1.246799E-01   2.632862E-01   5.819417E-02   7.542564E-02   5.741608E-02   5.058271E-02   1.325208E-01   3.950230E-01   1.967625E-01   8.576725E-02   5.571807E-02   3.459971E-02   3.006351E-02   6.507450E-02   1.067167E-01   5.045230E-02   6.328680E-02   5.922260E-02   8.439652E-02   3.169375E-02   4.338656E-02   1.076886E-01   1.068957E-01   9.684817E-02   1.477181E-01   5.918801E-02   5.934640E-02   8.837312E-02   4.446983E-02   1.121441E-02   4.814713E-02   1.875263E-02   3.136984E-02   2.595248E-02   3.806973E-02   6.417299E-02   3.866832E-02   3.249973E-02   4.354542E-02   3.461609E-02   7.104003E-02   7.080345E-02   7.464507E-02   8.136316E-02   8.098132E-02   7.566046E-02   2.097012E-01   1.104638E-01   2.693533E-02   2.695614E-02   2.290956E-02   1.677324E-02   2.111124E-02   1.994389E-02   2.537683E-02   3.013903E-02   9.195247E-02   3.778700E-02   6.163969E-02   7.848020E-02   1.202620E-01   8.806684E-02   5.466324E-02   1.388215E-01   1.427471E-01   2.198531E-01   1.473377E-01   5.900410E-02   2.495451E-02   3.931490E-02   8.533975E-02   1.436675E-01   1.825736E-01   1.295635E-01   1.115523E-01   1.115523E-01   9.475092E-02   1.481160E-02   1.481160E-02   1.567572E-02   7.266880E-03   7.266880E-03   1.355887E-02   1.355887E-02   1.355887E-02   5.770437E-02   5.770437E-02   5.770437E-02   6.464033E-02   6.464033E-02   6.464033E-02   6.464033E-02   6.464033E-02   3.405768E-01   3.405768E-01   3.405768E-01   3.405768E-01   3.405768E-01   2.452434E-01   2.452434E-01   2.452434E-01   2.452434E-01   2.452434E-01   2.452434E-01   2.452434E-01   2.383319E-01   2.383319E-01   2.383319E-01   2.383319E-01   2.383319E-01   2.383319E-01   2.383319E-01   2.383319E-01   2.383319E-01   2.383319E-01   2.551301E-01   2.551301E-01   2.551301E-01   2.551301E-01   2.551301E-01   2.551301E-01   2.551301E-01   2.551301E-01   2.551301E-01   3.146334E-02   3.146334E-02   3.146334E-02   3.146334E-02   3.146334E-02   3.146334E-02   3.146334E-02   4.507472E-02   4.507472E-02   4.507472E-02   4.507472E-02   4.507472E-02   3.073889E-02   3.073889E-02   3.073889E-02   3.073889E-02   4.053565E-02   4.053565E-02   4.053565E-02   4.378074E-02   4.378074E-02   3.941524E-02   3.941524E-02   4.538698E-02   4.538698E-02   4.325214E-02   4.298728E-02   4.743730E-02   4.743730E-02   1.017099E-01   1.125683E-01   6.381153E-02   3.334647E-02   2.292051E-02   1.487156E-02   9.653857E-03   8.048298E-03   9.126454E-03   1.259397E-02   2.529791E-02   3.464077E-02   2.851165E-02   3.760331E-02   4.740633E-02   3.457689E-01   3.847599E-02   8.253544E-02   1.450776E-01   5.481541E-02   3.360705E-02   4.474400E-02   1.712746E-01   2.412781E-01   1.615191E-01   1.735860E-01   8.066206E-02   8.406523E-02   1.054406E-01   1.028688E-01   6.406692E-02   1.719188E-02   2.139619E-02   4.602183E-02   4.250114E-02   7.333613E-02   1.641012E-01   9.118749E-02   1.544079E-01
   3.070523E-02   3.011205E-02   4.695279E-02   2.910059E-02   1.835293E-02   1.067998E-02   1.379270E-02   6.463110E-02   8.504253E-02   1.196437E-01   2.324284E-01   4.139546E-02   3.597631E-01   1.053148E-01   1.404429E-01   2.151878E-01   7.085175E-02   2.939208E-02   4.822502E-02   4.409410E-02   2.859518E-02   1.662647E-01   2.314204E-01   1.237003E-01   6.094547E-02   4.004885E-02   3.203731E-02   5.093530E-02   6.895538E-02   1.064462E-01   3.179004E-02   5.219766E-02   5.590700E-02   4.320069E-02   3.887401E-02   9.290978E-02   8.973629E-02   2.920462E-01   1.092416E-01   7.520172E-02   7.459185E-02   4.386411E-02   4.917543E-02   5.469879E-02   1.937064E-02   4.210784E-02   2.327349E-02   1.776232E-02   2.979550E-02   5.554985E-02   7.206250E-02   3.225462E-02   3.612185E-02   5.183709E-02   6.599849E-02   4.018292E-02   4.497723E-02   5.561398E-02   6.127661E-02   5.225031E-02   2.100883E-02   7.079640E-02   1.202683E-01   5.399084E-02   4.011085E-02   1.332259E-02   1.949620E-02   1.667075E-02   3.998360E-02   1.911318E-02   3.194747E-02   4.705427E-02   2.983999E-02   4.811215E-02   4.792265E-02   1.434965E-01   1.434363E-01   1.129113E-01   1.776846E-01   3.315040E-01   3.026741E-01   8.406734E-02   8.860879E-02   1.046306E-01   2.872023E-02   8.867810E-02   1.750544E-01   1.216139E-01   1.435135E-01   1.412622E-01   1.412622E-01   6.806695E-02   4.310114E-02   4.310114E-02   2.137225E-02   1.048579E-02   1.048579E-02   1.402409E-02   1.402409E-02   1.402409E-02   4.546712E-02   4.546712E-02   4.546712E-02   8.132739E-02   8.132739E-02   8.132739E-02   8.132739E-02   8.132739E-02   1.945207E-01   1.945207E-01   1.945207E-01   1.945207E-01   1.945207E-01   1.608820E-01   1.608820E-01   1.608820E-01   1.608820E-01   1.608820E-01   1.608820E-01   1.608820E-01   1.920343E-01   1.920343E-01   1.920343E-01   1.920343E-01   1.920343E-01   1.920343E-01   1.920343E-01   1.920343E-01   1.920343E-01   1.920343E-01   1.744123E-01   1.744123E-01   1.744123E-01   1.744123E-01   1.744123E-01   1.744123E-01   1.744123E-01   1.744123E-01   1.744123E-01   4.600841E-02   4.600841E-02   4.600841E-02   4.600841E-02   4.600841E-02   4.600841E-02   4.600841E-02   2.810792E-02   2.810792E-02   2.810792E-02   2.810792E-02   2.810792E-02   4.258968E-02   4.258968E-02   4.258968E-02   4.258968E-02   3.980920E-02   3.980920E-02   3.980920E-02   1.224012E-02   1.224012E-02   7.460048E-02   7.460048E-02   5.279310E-02   5.279310E-02   5.162046E-02   6.121093E-02   5.423553E-02   5.423553E-02   5.694616E-02   1.397850E-01   1.064281E-01   5.274143E-02   5.353009E-02   1.820550E-02   1.464003E-02   8.789705E-03   7.609793E-03   1.235671E-02   5.082656E-02   1.907020E-02   2.350834E-02   3.516363E-02   3.945923E-02   1.724456E-01   3.905367E-02   1.300369E-01   1.323597E-01   3.382809E-02   2.804227E-02   2.757206E-02   1.676944E-01   2.804031E-01   4.156003E-01   1.999962E-01   1.097763E-01   4.823657E-02   1.161044E-01   1.719761E-01   4.402047E-02   1.380510E-02   1.083652E-02   1.007198E-01   2.177524E-02   6.887114E-02   1.546360E-01   1.285847E-01   1.821011E-01
   7.069147E-02   2.618707E-02   3.458030E-02   1.229255E-02   1.258645E-02   3.372450E-02   1.177970E-02   6.446822E-02   1.268232E-01   7.121150E-02   2.259345E-01   7.115781E-02   6.129043E-01   1.570429E-01   8.541929E-02   7.085527E-02   4.063908E-02   3.251281E-02   1.852433E-02   3.704482E-02   2.020023E-02   5.259818E-02   1.897878E-01   1.430851E-01   3.383746E-02   1.885782E-02   3.490004E-02   8.238602E-02   7.418516E-02   5.548952E-02   2.277146E-02   6.880349E-02   1.264397E-01   1.479462E-01   6.677425E-02   8.245389E-02   8.540863E-02   1.441221E-01   1.561071E-01   7.160299E-02   4.319946E-02   3.351072E-02   1.449639E-02   3.328671E-02   1.272099E-02   8.747496E-03   1.140694E-02   2.825147E-02   2.532555E-02   3.287036E-02   6.747870E-02   3.061258E-02   6.113091E-02   4.945945E-02   4.297968E-02   8.908512E-02   8.027600E-02   6.965517E-02   5.916188E-02   3.547120E-02   3.469187E-02   5.654258E-02   7.855877E-02   7.241263E-02   3.562009E-02   3.056852E-02   3.167761E-02   1.874121E-02   4.567676E-02   1.963723E-02   4.567676E-02   3.453005E-02   2.244718E-02   5.131535E-02   6.305915E-02   7.363360E-02   2.678816E-01   2.123157E-01   2.285747E-01   5.092367E-01   2.352237E-01   7.439295E-02   9.781366E-02   7.921899E-02   3.825708E-02   2.296112E-01   2.610700E-01   3.556386E-01   2.806245E-01   5.414140E-02   5.414140E-02   7.614576E-02   6.802080E-02   6.802080E-02   3.405039E-02   2.960608E-02   2.960608E-02   4.598880E-02   4.598880E-02   4.598880E-02   5.618828E-02   5.618828E-02   5.618828E-02   5.700462E-02   5.700462E-02   5.700462E-02   5.700462E-02   5.700462E-02   1.258431E-01   1.258431E-01   1.258431E-01   1.258431E-01   1.258431E-01   9.218451E-02   9.218451E-02   9.218451E-02   9.218451E-02   9.218451E-02   9.218451E-02   9.218451E-02   6.563015E-02   6.563015E-02   6.563015E-02   6.563015E-02   6.563015E-02   6.563015E-02   6.563015E-02   6.563015E-02   6.563015E-02   6.563015E-02   7.217905E-02   7.217905E-02   7.217905E-02   7.217905E-02   7.217905E-02   7.217905E-02   7.217905E-02   7.217905E-02   7.217905E-02   6.777935E-02   6.777935E-02   6.777935E-02   6.777935E-02   6.777935E-02   6.777935E-02   6.777935E-02   2.724127E-02   2.724127E-02   2.724127E-02   2.724127E-02   2.724127E-02   6.640948E-02   6.640948E-02   6.640948E-02   6.640948E-02   2.409579E-02   2.409579E-02   2.409579E-02   1.503842E-02   1.503842E-02   6.445893E-02   6.445893E-02   5.291158E-02   5.291158E-02   2.761723E-02   3.608702E-02   5.787082E-02   5.787082E-02   1.258183E-01   4.085977E-01   1.338469E-01   8.682732E-02   1.166248E-01   5.095254E-02   4.567658E-02   2.337649E-02   1.093796E-02   3.732720E-02   5.483616E-02   3.344217E-02   1.325885E-02   1.488015E-02   3.606273E-02   6.285707E-02   2.292588E-02   1.048567E-01   1.481612E-01   5.763935E-02   4.073122E-02   3.393611E-02   1.298503E-01   3.441199E-01   5.118598E-01   2.325387E-01   1.288317E-01   6.758572E-02   1.561704E-01   1.167003E-01   3.558814E-02   2.344387E-02   2.076012E-02   4.285590E-02   4.903225E-02   1.057115E-01   1.026242E-01   9.388363E-02   4.588678E-01
   5.746144E-02   3.175068E-02   5.642485E-02   6.019186E-03   1.291969E-02   3.824392E-02   2.735878E-02   4.242057E-02   4.555847E-02   8.196662E-02   2.028249E-01   1.144738E-01   5.628603E-01   1.603905E-01   7.110702E-02   5.893248E-02   5.647688E-02   2.498013E-02   1.032618E-02   1.459487E-02   1.983344E-02   2.003089E-02   3.464726E-02   6.053315E-02   3.325012E-02   3.111544E-02   3.400348E-02   7.173283E-02   5.871929E-02   8.500061E-02   1.878683E-02   1.531279E-01   7.725269E-02   2.779843E-01   2.927575E-02   6.296437E-02   1.230257E-01   7.582835E-02   1.395594E-01   9.013923E-02   8.029344E-02   9.623580E-02   2.900857E-02   3.191828E-02   1.568081E-02   2.624395E-03   5.143147E-03   2.244901E-02   3.385308E-02   2.611925E-02   7.678105E-02   3.117831E-02   5.295723E-02   5.254255E-02   7.080502E-02   8.815390E-02   1.263373E-01   2.999365E-02   4.710086E-02   3.292355E-02   8.982496E-02   3.421186E-02   1.312411E-01   2.528238E-01   1.109111E-01   6.456766E-02   3.882606E-02   2.426462E-02   5.110972E-02   2.013124E-02   1.815901E-02   3.803786E-02   4.614175E-02   4.660528E-02   3.733516E-02   1.878479E-01   3.280974E-01   2.788790E-01   3.193818E-01   5.721502E-01   3.174816E-01   1.667301E-01   8.269333E-02   3.111212E-02   8.738851E-02   1.786731E-01   2.503935E-01   2.140083E-01   2.044251E-01   4.809626E-02   4.809626E-02   1.602615E-01   9.662279E-02   9.662279E-02   5.238154E-02   3.184567E-02   3.184567E-02   6.638797E-02   6.638797E-02   6.638797E-02   7.393703E-02   7.393703E-02   7.393703E-02   2.953902E-02   2.953902E-02   2.953902E-02   2.953902E-02   2.953902E-02   2.781498E-02   2.781498E-02   2.781498E-02   2.781498E-02   2.781498E-02   4.853160E-02   4.853160E-02   4.853160E-02   4.853160E-02   4.853160E-02   4.853160E-02   4.853160E-02   1.261440E-01   1.261440E-01   1.261440E-01   1.261440E-01   1.261440E-01   1.261440E-01   1.261440E-01   1.261440E-01   1.261440E-01   1.261440E-01   1.445427E-01   1.445427E-01   1.445427E-01   1.445427E-01   1.445427E-01   1.445427E-01   1.445427E-01   1.445427E-01   1.445427E-01   9.247540E-02   9.247540E-02   9.247540E-02   9.247540E-02   9.247540E-02   9.247540E-02   9.247540E-02   4.520686E-02   4.520686E-02   4.520686E-02   4.520686E-02   4.520686E-02   3.257029E-02   3.257029E-02   3.257029E-02   3.257029E-02   2.075783E-02   2.075783E-02   2.075783E-02   1.231369E-02   1.231369E-02   2.565543E-02   2.565543E-02   3.006271E-02   3.006271E-02   1.782865E-02   3.683525E-02   9.091538E-02   9.091538E-02   9.885996E-02   3.165989E-01   2.014520E-01   7.576861E-02   1.274220E-01   4.382480E-02   5.846656E-02   4.982768E-02   3.046782E-02   3.231464E-02   8.229800E-02   4.975982E-02   1.551825E-02   2.148342E-02   3.205516E-02   3.449554E-02   5.709184E-02   8.538105E-02   1.459954E-01   7.895055E-02   6.212310E-02   6.646097E-02   1.326976E-01   5.061879E-01   6.547928E-01   2.967014E-01   2.377638E-01   6.546654E-02   1.609219E-01   1.285159E-01   6.019146E-02   2.962315E-02   2.041628E-02   4.016552E-02   6.709811E-02   1.734598E-01   8.224505E-02   2.595212E-02   2.237170E-01
   8.271789E-02   4.454657E-02   3.047811E-02   7.292338E-03   1.834529E-02   3.673637E-02   2.994130E-02   4.230503E-02   2.349239E-02   7.167125E-02   1.243419E-01   1.805431E-01   3.597836E-01   2.673615E-01   6.446705E-02   9.512395E-02   8.656280E-02   3.319598E-02   1.561907E-02   1.505870E-02   3.101652E-02   2.535464E-02   4.327138E-02   1.265488E-01   5.614082E-02   4.489757E-02   3.411778E-02   1.053172E-01   1.178510E-01   7.335977E-02   4.553422E-02   1.318897E-01   1.036950E-01   1.264245E-01   3.256228E-02   4.364338E-02   4.600093E-02   7.007374E-02   1.559334E-01   1.809367E-01   6.327192E-02   8.208975E-02   8.456550E-02   1.998066E-02   2.898141E-02   7.321653E-03   5.244624E-03   2.129575E-02   3.592177E-02   4.831192E-02   4.029033E-02   1.939041E-02   6.554221E-02   7.139318E-02   9.438581E-02   3.163151E-01   7.362539E-02   3.455038E-02   7.466716E-02   4.032962E-02   4.240346E-02   2.596674E-02   5.788159E-02   7.972749E-02   1.008532E-01   1.982574E-01   9.349593E-02   2.503526E-02   6.165886E-02   3.887259E-02   2.269071E-02   2.359826E-02   3.013158E-02   6.408000E-02   6.986493E-02   1.501361E-01   1.939021E-01   3.069032E-01   7.130038E-01   7.157190E-01   3.010956E-01   2.068792E-01   7.650804E-02   6.210059E-02   4.726933E-02   1.241688E-01   2.274320E-01   1.215579E-01   2.830825E-01   6.295846E-02   6.295846E-02   1.607522E-01   1.247783E-01   1.247783E-01   8.268105E-02   7.333996E-02   7.333996E-02   8.261838E-02   8.261838E-02   8.261838E-02   9.353495E-02   9.353495E-02   9.353495E-02   2.753447E-02   2.753447E-02   2.753447E-02   2.753447E-02   2.753447E-02   6.271432E-02   6.271432E-02   6.271432E-02   6.271432E-02   6.271432E-02   5.389895E-02   5.389895E-02   5.389895E-02   5.389895E-02   5.389895E-02   5.389895E-02   5.389895E-02   1.013964E-01   1.013964E-01   1.013964E-01   1.013964E-01   1.013964E-01   1.013964E-01   1.013964E-01   1.013964E-01   1.013964E-01   1.013964E-01   2.215340E-01   2.215340E-01   2.215340E-01   2.215340E-01   2.215340E-01   2.215340E-01   2.215340E-01   2.215340E-01   2.215340E-01   8.208860E-02   8.208860E-02   8.208860E-02   8.208860E-02   8.208860E-02   8.208860E-02   8.208860E-02   4.262461E-02   4.262461E-02   4.262461E-02   4.262461E-02   4.262461E-02   2.518938E-02   2.518938E-02   2.518938E-02   2.518938E-02   1.322579E-02   1.322579E-02   1.322579E-02   1.481384E-02   1.481384E-02   4.712501E-02   4.712501E-02   3.551160E-02   3.551160E-02   1.587582E-02   3.954860E-02   1.719294E-01   1.719294E-01   2.488028E-01   1.586863E-01   5.427141E-01   1.582386E-01   1.353110E-01   1.089881E-01   2.344462E-02   6.360736E-02   4.699749E-02   5.145691E-02   4.092935E-02   4.162550E-02   3.806966E-02   2.473863E-02   2.828462E-02   7.273931E-02   7.322562E-02   1.255875E-01   1.621865E-01   9.644026E-02   3.544815E-02   4.892603E-02   1.497203E-01   3.726446E-01   2.252499E-01   2.163863E-01   1.756702E-01   5.648400E-02   7.804846E-02   1.154054E-01   6.384666E-02   7.589478E-02   4.951383E-02   4.317377E-02   6.092219E-02   2.240810E-01   5.796645E-02   9.373669E-02   1.965787E-01
   6.380548E-02   3.002945E-02   2.531842E-02   1.489115E-02   1.145277E-02   2.023568E-02   3.382793E-02   5.209948E-02   7.876052E-02   5.174981E-02   1.492031E-01   2.484618E-01   2.639935E-01   2.124689E-01   6.305895E-02   4.181382E-02   1.545737E-01   6.787018E-02   3.566632E-02   3.937417E-02   9.396373E-02   3.701770E-02   2.581531E-02   1.194781E-01   6.809760E-02   4.453864E-02   5.216848E-02   7.279792E-02   5.144834E-02   8.562979E-02   6.428519E-02   9.592173E-02   1.365558E-01   1.441364E-01   1.345899E-01   4.180667E-02   5.052070E-02   9.342042E-02   1.269201E-01   8.343388E-02   9.470397E-02   1.225546E-01   7.828329E-02   1.645122E-02   1.696961E-02   1.027681E-02   1.235120E-02   3.572961E-02   6.268621E-02   7.046606E-02   4.426251E-02   1.332698E-02   3.246126E-02   1.221952E-01   1.531519E-01   4.337142E-01   8.649389E-02   5.061854E-02   7.343706E-02   4.359141E-02   5.491548E-02   6.334287E-02   7.235412E-02   7.017926E-02   9.440778E-02   2.245219E-01   8.930539E-02   5.190087E-02   2.327784E-02   4.202647E-02   4.324288E-02   3.185801E-02   2.381234E-02   4.050648E-02   4.009078E-02   9.704683E-02   3.721190E-01   4.407185E-01   8.195439E-01   5.770478E-01   5.040353E-01   1.954927E-01   6.500514E-02   1.217476E-01   3.462295E-02   1.695240E-01   1.968387E-01   3.327959E-01   2.579781E-01   1.266075E-01   1.266075E-01   1.665507E-01   1.662387E-01   1.662387E-01   1.094941E-01   9.194832E-02   9.194832E-02   5.031229E-02   5.031229E-02   5.031229E-02   7.003453E-02   7.003453E-02   7.003453E-02   2.645803E-02   2.645803E-02   2.645803E-02   2.645803E-02   2.645803E-02   3.749883E-02   3.749883E-02   3.749883E-02   3.749883E-02   3.749883E-02   3.033528E-02   3.033528E-02   3.033528E-02   3.033528E-02   3.033528E-02   3.033528E-02   3.033528E-02   5.122185E-02   5.122185E-02   5.122185E-02   5.122185E-02   5.122185E-02   5.122185E-02   5.122185E-02   5.122185E-02   5.122185E-02   5.122185E-02   1.366460E-01   1.366460E-01   1.366460E-01   1.366460E-01   1.366460E-01   1.366460E-01   1.366460E-01   1.366460E-01   1.366460E-01   6.741672E-02   6.741672E-02   6.741672E-02   6.741672E-02   6.741672E-02   6.741672E-02   6.741672E-02   4.714160E-02   4.714160E-02   4.714160E-02   4.714160E-02   4.714160E-02   5.180102E-02   5.180102E-02   5.180102E-02   5.180102E-02   4.756746E-02   4.756746E-02   4.756746E-02   1.107657E-02   1.107657E-02   3.115534E-02   3.115534E-02   1.116019E-02   1.116019E-02   2.031070E-02   2.698906E-02   1.207763E-01   1.207763E-01   1.961430E-01   2.878570E-01   6.761985E-01   1.589134E-01   4.935725E-02   7.287826E-02   2.558047E-02   6.409582E-02   2.752721E-02   6.332237E-02   6.272253E-02   5.002270E-02   1.989395E-02   1.877626E-02   2.272864E-02   5.162683E-02   5.916508E-02   6.633221E-02   8.293189E-02   4.726804E-02   5.633342E-02   9.851970E-02   7.224958E-02   1.996561E-01   4.279663E-01   2.908538E-01   2.240373E-01   6.148437E-02   5.748177E-02   8.855809E-02   7.039703E-02   5.303218E-02   5.630516E-02   4.397471E-02   1.461377E-01   1.841995E-01   2.135083E-02   7.198685E-02   9.113751E-02
   5.752137E-02   3.856623E-02   3.302456E-02   2.228720E-02   4.009023E-02   3.546884E-02   5.733254E-02   5.630256E-02   9.714895E-02   9.559377E-02   1.534656E-01   2.141949E-01   3.794500E-01   3.553251E-01   6.234819E-02   1.071886E-01   1.653901E-01   8.533816E-02   5.645303E-02   6.594002E-02   8.583993E-02   3.077443E-02   7.112203E-02   9.237154E-02   5.036511E-02   7.399330E-02   1.149054E-01   6.989949E-02   4.088689E-02   6.035638E-02   8.131666E-02   1.351038E-01   1.660792E-01   3.342456E-01   1.306688E-01   1.425879E-01   5.443017E-02   7.909772E-02   7.974885E-02   6.650237E-02   5.129357E-02   7.043382E-02   5.418363E-02   2.348540E-02   1.180652E-02   1.384225E-02   3.078348E-02   2.429010E-02   8.194640E-02   6.836558E-02   6.334966E-02   2.845306E-02   6.721246E-02   1.673131E-01   1.372860E-01   3.132721E-01   1.588540E-01   6.083090E-02   4.211656E-02   2.127016E-02   2.694475E-02   4.587602E-02   8.267311E-02   4.265203E-02   1.282033E-01   1.552739E-01   8.774550E-02   4.821990E-02   3.266300E-02   4.200865E-02   4.830904E-02   2.943727E-02   2.441760E-02   3.575072E-02   2.816903E-02   8.279940E-02   3.471414E-01   4.714598E-01   5.157936E-01   4.698133E-01   4.291499E-01   9.931751E-02   9.745406E-02   6.998881E-02   9.921258E-02   2.518058E-01   2.482186E-01   1.685343E-01   1.003106E-01   8.513183E-02   8.513183E-02   1.979461E-01   9.470050E-02   9.470050E-02   1.535458E-01   1.046658E-01   1.046658E-01   6.125638E-02   6.125638E-02   6.125638E-02   3.374430E-02   3.374430E-02   3.374430E-02   1.585969E-02   1.585969E-02   1.585969E-02   1.585969E-02   1.585969E-02   3.084641E-02   3.084641E-02   3.084641E-02   3.084641E-02   3.084641E-02   2.937201E-02   2.937201E-02   2.937201E-02   2.937201E-02   2.937201E-02   2.937201E-02   2.937201E-02   5.823829E-02   5.823829E-02   5.823829E-02   5.823829E-02   5.823829E-02   5.823829E-02   5.823829E-02   5.823829E-02   5.823829E-02   5.823829E-02   1.405541E-01   1.405541E-01   1.405541E-01   1.405541E-01   1.405541E-01   1.405541E-01   1.405541E-01   1.405541E-01   1.405541E-01   9.907787E-02   9.907787E-02   9.907787E-02   9.907787E-02   9.907787E-02   9.907787E-02   9.907787E-02   8.638521E-02   8.638521E-02   8.638521E-02   8.638521E-02   8.638521E-02   9.526828E-02   9.526828E-02   9.526828E-02   9.526828E-02   2.993038E-02   2.993038E-02   2.993038E-02   8.931245E-03   8.931245E-03   1.401555E-02   1.401555E-02   1.666433E-02   1.666433E-02   3.880833E-02   2.586848E-02   1.381501E-01   1.381501E-01   1.955767E-01   2.223241E-01   4.960035E-01   1.205464E-01   4.698680E-02   4.702075E-02   2.425838E-02   2.489726E-02   3.763562E-02   7.168133E-02   4.672719E-02   2.256302E-02   1.888006E-02   1.277626E-02   3.912958E-02   4.436453E-02   4.821336E-02   1.921614E-01   6.013918E-02   3.115990E-02   1.063383E-01   4.592974E-02   2.179956E-02   1.072764E-01   2.072276E-01   1.825953E-01   1.814502E-01   1.028289E-01   1.478957E-01   1.144855E-01   6.539387E-02   3.353713E-02   8.917779E-02   9.733203E-02   1.224404E-01   1.746412E-01   4.372950E-02   5.920722E-02   8.904235E-02
   8.324296E-02   4.975225E-02   2.664987E-02   6.029635E-02   1.086622E-01   6.408544E-02   7.379623E-02   1.091830E-01   1.071927E-01   1.711875E-01   1.917949E-01   1.000222E-01   2.429053E-01   4.950781E-01   1.087190E-01   1.564410E-01   1.186801E-01   8.418930E-02   3.328972E-02   6.032219E-02   9.750091E-02   3.893393E-02   6.220151E-02   4.327772E-02   4.290082E-02   1.240279E-01   7.144118E-02   1.438668E-01   6.905714E-02   1.747402E-01   1.252150E-01   2.217336E-01   2.233417E-01   3.115905E-01   1.878112E-01   1.576086E-01   1.245655E-01   8.331445E-02   8.683116E-02   7.161903E-02   3.422625E-02   2.897211E-02   6.587376E-02   2.556714E-02   1.080773E-02   3.414484E-02   3.931394E-02   7.442017E-02   9.734224E-02   4.414662E-02   6.152326E-02   5.497656E-02   9.036512E-02   1.641815E-01   2.765600E-01   1.048352E-01   1.449433E-01   1.061544E-01   3.673239E-02   1.288835E-02   2.732509E-02   2.786589E-02   3.653991E-02   4.459124E-02   5.502195E-02   8.300497E-02   1.675514E-01   9.459989E-02   4.914902E-02   4.484215E-02   6.693943E-02   5.832526E-02   1.953549E-02   3.130365E-02   6.951842E-02   1.447392E-01   3.672230E-01   5.163291E-01   4.789038E-01   2.076284E-01   6.346239E-02   7.333264E-02   7.309815E-02   4.655602E-02   2.090459E-01   2.977181E-01   2.848879E-01   3.761115E-01   1.777774E-01   7.257880E-02   7.257880E-02   1.582648E-01   1.430809E-01   1.430809E-01   1.116378E-01   5.608483E-02   5.608483E-02   6.563802E-02   6.563802E-02   6.563802E-02   5.068734E-02   5.068734E-02   5.068734E-02   3.796638E-02   3.796638E-02   3.796638E-02   3.796638E-02   3.796638E-02   4.293533E-02   4.293533E-02   4.293533E-02   4.293533E-02   4.293533E-02   5.694886E-02   5.694886E-02   5.694886E-02   5.694886E-02   5.694886E-02   5.694886E-02   5.694886E-02   4.349687E-02   4.349687E-02   4.349687E-02   4.349687E-02   4.349687E-02   4.349687E-02   4.349687E-02   4.349687E-02   4.349687E-02   4.349687E-02   1.149731E-01   1.149731E-01   1.149731E-01   1.149731E-01   1.149731E-01   1.149731E-01   1.149731E-01   1.149731E-01   1.149731E-01   2.413438E-01   2.413438E-01   2.413438E-01   2.413438E-01   2.413438E-01   2.413438E-01   2.413438E-01   1.179277E-01   1.179277E-01   1.179277E-01   1.179277E-01   1.179277E-01   2.308926E-01   2.308926E-01   2.308926E-01   2.308926E-01   4.458826E-02   4.458826E-02   4.458826E-02   2.256471E-02   2.256471E-02   2.466401E-02   2.466401E-02   1.073588E-02   1.073588E-02   2.611175E-02   6.629353E-02   1.769065E-01   1.769065E-01   3.997831E-01   2.680990E-01   4.199855E-01   1.278797E-01   3.940086E-02   2.587718E-02   6.705420E-02   4.386546E-02   8.497241E-02   9.896620E-02   6.564514E-02   3.141399E-02   1.121316E-02   8.579515E-03   2.179236E-02   2.533805E-02   4.829929E-02   1.146439E-01   6.220422E-02   4.991130E-02   6.150637E-02   6.666046E-02   2.111520E-02   4.945492E-02   1.204553E-01   1.227793E-01   2.288399E-01   7.933272E-02   9.292384E-02   1.355488E-01   6.926711E-02   4.102056E-02   1.152681E-01   1.022011E-01   9.227399E-02   1.630138E-01   6.535146E-02   6.356897E-02   1.822366E-01