# LPF package for  MODFLOW-2005, generated by Flopy.
        53    -1E+30         0  
         1
         0
   0.000000E+00
         0
         0
INTERNAL               1 (207E15.6) -1 #hk layer 1                    
   8.475229E+01   3.276224E+01   3.656459E+01   5.585074E+01   7.352127E+01   3.278883E+01   2.330442E+01   1.237109E+01   2.866886E+01   1.777836E+01   4.196731E+01   5.653623E+01   2.687812E+01   3.427023E+01   5.373372E+01   1.622396E+01   1.077444E+02   1.819892E+02   1.953527E+02   1.084298E+02   1.994831E+01   1.206308E+01   3.585422E+01   1.773251E+01   1.923318E+01   6.355566E+01   1.174055E+02   1.703075E+02   4.383445E+01   7.634885E+01   3.059871E+01   4.250047E+01   6.511821E+01   3.671448E+01   3.122731E+01   3.176080E+01   9.755392E+01   7.549419E+01   1.194719E+02   3.533482E+01   2.770007E+01   1.979169E+01   2.394016E+01   4.248862E+01   5.622632E+01   1.918830E+02   1.137912E+02   1.693534E+02   8.985991E+01   8.767652E+01   9.277950E+01   3.350476E+01   2.863408E+01   2.910339E+01   4.621949E+01   6.558474E+01   8.464164E+01   5.292947E+01   9.060483E+01   1.411390E+02   8.705786E+01   1.558201E+02   1.761586E+02   9.178587E+01   9.596118E+01   1.296899E+01   2.009075E+01   2.441643E+01   2.971632E+01   4.243538E+01   5.509085E+01   4.930189E+01   2.544461E+01   3.117080E+01   5.385884E+01   9.696728E+01   6.452174E+01   4.942163E+01   2.378509E+01   2.130540E+01   2.376422E+01   3.836296E+01   4.350405E+01   1.031573E+02   5.847147E+01   5.072987E+01   7.015528E+01   3.499743E+01   4.413645E+01   2.279984E+01   2.279984E+01   2.245997E+01   1.414537E+01   1.414537E+01   1.947169E+01   5.075665E+01   5.075665E+01   3.615371E+01   3.615371E+01   3.615371E+01   2.512317E+01   2.512317E+01   2.512317E+01   2.091308E+01   2.091308E+01   2.091308E+01   2.091308E+01   2.091308E+01   3.077006E+01   3.077006E+01   3.077006E+01   3.077006E+01   3.077006E+01   3.946688E+01   3.946688E+01   3.946688E+01   3.946688E+01   3.946688E+01   3.946688E+01   3.946688E+01   2.192120E+01   2.192120E+01   2.192120E+01   2.192120E+01   2.192120E+01   2.192120E+01   2.192120E+01   2.192120E+01   2.192120E+01   2.192120E+01   6.777701E+01   6.777701E+01   6.777701E+01   6.777701E+01   6.777701E+01   6.777701E+01   6.777701E+01   6.777701E+01   6.777701E+01   3.034598E+01   3.034598E+01   3.034598E+01   3.034598E+01   3.034598E+01   3.034598E+01   3.034598E+01   2.246009E+01   2.246009E+01   2.246009E+01   2.246009E+01   2.246009E+01   1.163259E+01   1.163259E+01   1.163259E+01   1.163259E+01   1.092141E+01   1.092141E+01   1.092141E+01   1.825255E+01   1.825255E+01   2.091893E+02   2.091893E+02   2.375114E+02   2.375114E+02   3.978437E+02   1.487330E+02   7.772069E+01   7.772069E+01   3.749370E+01   6.647344E+01   2.724971E+01   6.529877E+01   3.992442E+01   2.509347E+01   2.748496E+01   2.234191E+01   4.204483E+01   4.435244E+01   2.209531E+01   6.503181E+01   2.951853E+01   1.396189E+01   4.794038E+01   6.110832E+01   6.030220E+01   2.328059E+01   1.361625E+01   3.386156E+01   2.868483E+01   7.721236E+00   2.608919E+01   1.963616E+01   1.072776E+02   4.381964E+01   1.143953E+02   1.309130E+02   1.782700E+02   1.333363E+02   2.053040E+02   9.847415E+01   5.219732E+01   3.277858E+01   2.867381E+01   2.105043E+01   1.950155E+01   3.735137E+01   1.678509E+01
   5.389997E+01   2.182870E+01   4.432444E+01   5.981408E+01   5.951118E+01   3.184773E+01   5.120076E+01   2.612324E+01   3.064214E+01   2.181548E+01   4.816665E+01   9.297263E+01   3.289143E+01   4.573230E+01   2.968627E+01   2.967182E+01   1.161422E+02   1.791424E+02   1.356136E+02   7.663159E+01   2.742655E+01   1.619656E+01   2.611936E+01   8.441472E+00   2.500436E+01   6.228315E+01   1.143245E+02   6.481212E+01   2.203990E+01   2.990173E+01   1.696618E+01   6.104181E+01   7.425311E+01   3.544390E+01   4.118168E+01   3.479423E+01   3.298808E+01   2.941815E+01   1.003125E+02   2.874932E+01   2.308627E+01   1.014842E+01   1.643222E+01   7.066691E+01   6.389238E+01   2.007959E+02   1.615754E+02   1.588799E+02   1.018071E+02   1.704289E+02   1.247170E+02   4.242019E+01   3.855290E+01   3.763554E+01   4.411186E+01   2.813015E+01   6.071864E+01   7.067826E+01   8.307461E+01   2.433893E+02   1.370794E+02   8.322208E+01   1.767157E+02   1.129226E+02   1.209541E+02   4.062883E+01   4.468443E+01   3.686358E+01   5.697542E+01   5.701429E+01   5.186220E+01   6.852072E+01   1.096750E+02   2.698718E+01   1.383344E+02   1.654424E+02   1.123120E+02   3.604171E+01   3.622432E+01   1.129051E+01   1.368572E+01   3.149494E+01   7.698569E+01   1.669861E+02   5.822577E+01   2.682875E+01   7.051569E+01   3.132434E+01   3.677624E+01   1.527633E+01   1.527633E+01   1.413386E+01   3.187085E+01   3.187085E+01   3.415854E+01   1.060384E+02   1.060384E+02   2.510979E+01   2.510979E+01   2.510979E+01   3.486792E+01   3.486792E+01   3.486792E+01   2.675131E+01   2.675131E+01   2.675131E+01   2.675131E+01   2.675131E+01   2.126527E+01   2.126527E+01   2.126527E+01   2.126527E+01   2.126527E+01   6.921225E+00   6.921225E+00   6.921225E+00   6.921225E+00   6.921225E+00   6.921225E+00   6.921225E+00   5.728345E+01   5.728345E+01   5.728345E+01   5.728345E+01   5.728345E+01   5.728345E+01   5.728345E+01   5.728345E+01   5.728345E+01   5.728345E+01   5.358417E+01   5.358417E+01   5.358417E+01   5.358417E+01   5.358417E+01   5.358417E+01   5.358417E+01   5.358417E+01   5.358417E+01   3.238063E+01   3.238063E+01   3.238063E+01   3.238063E+01   3.238063E+01   3.238063E+01   3.238063E+01   2.200126E+01   2.200126E+01   2.200126E+01   2.200126E+01   2.200126E+01   7.311513E+00   7.311513E+00   7.311513E+00   7.311513E+00   1.093575E+01   1.093575E+01   1.093575E+01   2.698306E+01   2.698306E+01   1.412869E+02   1.412869E+02   3.256150E+02   3.256150E+02   2.766474E+02   2.225219E+02   4.117184E+01   4.117184E+01   4.779365E+01   7.354283E+01   3.701647E+01   2.290579E+01   5.995371E+01   2.558316E+01   1.607116E+01   1.205770E+01   4.501093E+01   2.462960E+01   3.353982E+01   5.396220E+01   3.966916E+01   2.216739E+01   4.818789E+01   6.644232E+01   7.597283E+01   6.256300E+01   1.446709E+01   3.387405E+01   2.587497E+01   2.572159E+01   2.647296E+01   5.118596E+01   4.225383E+01   3.593824E+01   8.592961E+01   1.221970E+02   2.836160E+02   1.308740E+02   1.898289E+02   1.356501E+02   4.983595E+01   8.175404E+01   7.493305E+01   5.217015E+01   1.678963E+01   1.010639E+01   2.407367E+01
   4.287449E+01   5.280677E+01   3.476325E+01   8.941309E+01   1.095178E+02   1.623464E+01   5.820572E+01   3.433260E+01   2.856265E+01   3.583261E+01   6.815842E+01   5.829781E+01   2.324994E+01   7.301464E+01   3.081861E+01   4.269749E+01   1.339331E+02   1.569654E+02   1.168525E+02   1.074115E+02   5.822012E+01   5.124773E+01   1.102205E+01   7.667127E+00   1.983175E+01   4.315347E+01   4.676497E+01   1.049467E+02   1.521451E+01   1.272756E+01   2.664341E+01   3.105771E+01   7.269476E+01   3.412762E+01   3.239102E+01   4.399838E+01   2.337233E+01   2.076947E+01   3.873994E+01   1.844909E+01   1.605536E+01   8.347978E+00   1.322110E+01   2.695470E+01   4.465232E+01   8.290313E+01   9.201040E+01   1.077211E+02   7.919941E+01   1.772704E+02   8.277112E+01   5.973207E+01   4.586127E+01   7.161914E+01   4.606559E+01   5.071959E+01   4.930906E+01   6.767471E+01   1.079906E+02   2.048544E+02   2.508555E+02   1.990461E+02   2.101888E+02   1.429315E+02   1.362794E+02   8.554707E+01   1.030880E+02   2.888920E+01   4.835626E+01   4.502859E+01   6.530551E+01   2.095869E+02   1.382223E+02   6.708401E+01   3.900778E+02   1.127175E+02   7.055030E+01   1.986776E+01   2.122688E+01   1.161557E+01   2.184275E+01   5.580202E+01   1.688596E+02   1.663916E+02   1.567189E+02   1.354045E+02   8.271423E+01   5.558934E+01   4.481543E+01   1.660676E+01   1.660676E+01   1.677773E+01   2.858682E+01   2.858682E+01   2.011561E+01   5.183638E+01   5.183638E+01   7.312866E+01   7.312866E+01   7.312866E+01   6.724763E+01   6.724763E+01   6.724763E+01   1.957593E+01   1.957593E+01   1.957593E+01   1.957593E+01   1.957593E+01   1.214842E+01   1.214842E+01   1.214842E+01   1.214842E+01   1.214842E+01   9.713691E+00   9.713691E+00   9.713691E+00   9.713691E+00   9.713691E+00   9.713691E+00   9.713691E+00   6.204123E+01   6.204123E+01   6.204123E+01   6.204123E+01   6.204123E+01   6.204123E+01   6.204123E+01   6.204123E+01   6.204123E+01   6.204123E+01   7.594157E+01   7.594157E+01   7.594157E+01   7.594157E+01   7.594157E+01   7.594157E+01   7.594157E+01   7.594157E+01   7.594157E+01   2.263736E+01   2.263736E+01   2.263736E+01   2.263736E+01   2.263736E+01   2.263736E+01   2.263736E+01   1.615850E+01   1.615850E+01   1.615850E+01   1.615850E+01   1.615850E+01   9.161816E+00   9.161816E+00   9.161816E+00   9.161816E+00   3.560281E+01   3.560281E+01   3.560281E+01   2.109497E+01   2.109497E+01   8.356607E+01   8.356607E+01   1.814631E+02   1.814631E+02   3.698518E+02   1.524546E+02   5.005846E+01   5.005846E+01   6.574197E+01   5.416111E+01   4.925414E+01   3.148224E+01   3.651142E+01   1.386177E+01   1.008302E+01   2.614918E+01   4.350710E+01   3.393725E+01   3.826553E+01   3.989094E+01   4.193210E+01   2.996880E+01   3.349221E+01   5.954394E+01   1.664000E+02   7.118246E+01   1.281640E+01   2.582359E+01   2.581063E+01   2.420839E+01   5.219130E+01   3.304177E+01   3.687940E+01   3.325599E+01   5.303809E+01   2.544157E+01   1.983700E+02   7.314178E+01   1.444205E+02   1.791875E+02   1.326364E+02   2.323787E+02   5.845288E+01   3.161762E+01   2.862984E+01   1.194786E+01   2.869361E+01
   2.504841E+01   5.271446E+01   2.842316E+01   9.179638E+01   5.949805E+01   2.175372E+01   6.329316E+01   4.238956E+01   8.786787E+01   5.169607E+01   3.581562E+01   7.509704E+01   4.074357E+01   5.917059E+01   2.716795E+01   8.712762E+01   2.181540E+02   2.588750E+02   2.025484E+02   1.131020E+02   9.379655E+01   6.632812E+01   2.883292E+01   1.033277E+01   3.360863E+01   1.261742E+02   7.276379E+01   9.646348E+01   2.247158E+01   6.481191E+00   3.233960E+01   8.155708E+01   5.469112E+01   4.290614E+01   2.823868E+01   3.723048E+01   3.606720E+01   4.362662E+01   2.496482E+01   1.925461E+01   7.338855E+00   3.973343E+00   1.711314E+01   1.975468E+01   1.835128E+01   7.975002E+01   1.438909E+02   1.381192E+02   6.276407E+01   1.163228E+02   1.329115E+02   4.130389E+01   4.132820E+01   3.430298E+01   3.927195E+01   4.626478E+01   4.979413E+01   5.093816E+01   1.565776E+02   1.592034E+02   2.381148E+02   2.952594E+02   5.105949E+02   1.405025E+02   2.185040E+02   1.345629E+02   8.676170E+01   6.148320E+01   7.595544E+01   5.072928E+01   1.235299E+02   3.241683E+02   2.496826E+02   2.250955E+02   2.326890E+02   2.295802E+02   7.045147E+01   1.863324E+01   2.495765E+01   1.929253E+01   2.628280E+01   7.992102E+01   2.190759E+02   1.822175E+02   1.197126E+02   1.175555E+02   2.128517E+02   5.479207E+01   5.485292E+01   2.046434E+01   2.046434E+01   1.414008E+01   1.370497E+01   1.370497E+01   5.224157E+01   6.970627E+01   6.970627E+01   5.891722E+01   5.891722E+01   5.891722E+01   6.101033E+01   6.101033E+01   6.101033E+01   2.750175E+01   2.750175E+01   2.750175E+01   2.750175E+01   2.750175E+01   2.887203E+01   2.887203E+01   2.887203E+01   2.887203E+01   2.887203E+01   1.419619E+01   1.419619E+01   1.419619E+01   1.419619E+01   1.419619E+01   1.419619E+01   1.419619E+01   3.187627E+01   3.187627E+01   3.187627E+01   3.187627E+01   3.187627E+01   3.187627E+01   3.187627E+01   3.187627E+01   3.187627E+01   3.187627E+01   4.757581E+01   4.757581E+01   4.757581E+01   4.757581E+01   4.757581E+01   4.757581E+01   4.757581E+01   4.757581E+01   4.757581E+01   1.218747E+01   1.218747E+01   1.218747E+01   1.218747E+01   1.218747E+01   1.218747E+01   1.218747E+01   1.228291E+01   1.228291E+01   1.228291E+01   1.228291E+01   1.228291E+01   1.332507E+01   1.332507E+01   1.332507E+01   1.332507E+01   4.105150E+01   4.105150E+01   4.105150E+01   8.950889E+00   8.950889E+00   5.439760E+01   5.439760E+01   1.612178E+02   1.612178E+02   2.893594E+02   1.643257E+02   1.444526E+02   1.444526E+02   5.726013E+01   9.537153E+01   5.948553E+01   1.431498E+01   2.345798E+01   2.549891E+01   1.547231E+01   2.171653E+01   7.795335E+01   5.013896E+01   3.678923E+01   5.667071E+01   2.274249E+01   2.718182E+01   3.294662E+01   1.335509E+02   1.250690E+02   7.150330E+01   2.301739E+01   3.199610E+01   5.672313E+01   7.191360E+01   3.072891E+01   1.203808E+01   2.610240E+01   6.337324E+01   8.497017E+00   5.805397E+00   6.492801E+01   1.136882E+02   1.306117E+02   1.235126E+02   1.510719E+02   3.540145E+02   5.832113E+01   6.915546E+01   2.111097E+01   1.508149E+01   8.332316E+01
   9.600129E+00   3.963630E+01   1.850333E+01   7.693274E+01   3.863349E+01   3.716403E+01   1.117101E+02   3.083203E+01   5.870630E+01   3.124142E+01   5.746119E+01   5.497203E+01   5.794270E+01   2.978643E+01   7.066262E+01   2.090788E+02   1.678089E+02   1.814996E+02   1.092984E+02   7.828091E+01   5.633696E+01   2.628896E+01   2.715482E+01   1.919056E+01   3.714354E+01   1.663905E+02   7.349698E+01   1.012249E+02   5.305881E+01   1.047849E+01   2.804914E+01   4.919660E+01   7.689938E+01   4.551588E+01   1.772063E+01   2.010187E+01   2.193251E+01   3.551093E+01   2.162106E+01   1.753100E+01   9.369691E+00   3.528108E+00   8.685102E+00   8.529358E+00   1.208818E+01   6.067724E+01   7.951336E+01   2.054783E+02   5.234397E+01   6.793354E+01   2.277805E+02   9.974319E+01   9.158495E+01   6.441762E+01   3.119335E+01   3.477333E+01   6.556348E+01   3.592825E+01   5.699674E+01   5.330997E+01   1.240061E+02   3.091084E+02   3.989822E+02   9.682882E+01   3.538073E+02   1.758998E+02   6.832172E+01   7.467184E+01   8.439633E+01   2.662088E+01   9.783803E+01   1.726115E+02   5.282694E+02   1.315894E+02   2.230101E+02   1.478705E+02   4.989093E+01   1.215664E+01   1.786234E+01   3.616126E+01   4.181099E+01   3.685664E+01   7.145917E+01   1.134306E+02   1.726107E+02   3.040439E+02   2.786738E+02   8.115189E+01   3.382367E+01   2.353524E+01   2.353524E+01   3.496662E+01   1.945648E+01   1.945648E+01   3.032427E+01   9.111581E+01   9.111581E+01   9.604443E+01   9.604443E+01   9.604443E+01   6.872875E+01   6.872875E+01   6.872875E+01   1.684369E+01   1.684369E+01   1.684369E+01   1.684369E+01   1.684369E+01   1.394708E+01   1.394708E+01   1.394708E+01   1.394708E+01   1.394708E+01   1.485787E+01   1.485787E+01   1.485787E+01   1.485787E+01   1.485787E+01   1.485787E+01   1.485787E+01   2.447897E+01   2.447897E+01   2.447897E+01   2.447897E+01   2.447897E+01   2.447897E+01   2.447897E+01   2.447897E+01   2.447897E+01   2.447897E+01   8.259621E+01   8.259621E+01   8.259621E+01   8.259621E+01   8.259621E+01   8.259621E+01   8.259621E+01   8.259621E+01   8.259621E+01   1.269862E+01   1.269862E+01   1.269862E+01   1.269862E+01   1.269862E+01   1.269862E+01   1.269862E+01   1.026582E+01   1.026582E+01   1.026582E+01   1.026582E+01   1.026582E+01   7.534706E+00   7.534706E+00   7.534706E+00   7.534706E+00   3.835839E+01   3.835839E+01   3.835839E+01   4.703051E+01   4.703051E+01   2.957699E+01   2.957699E+01   5.005648E+01   5.005648E+01   9.846791E+01   2.202979E+02   1.440729E+02   1.440729E+02   5.480570E+01   1.716081E+02   8.580242E+01   1.618456E+01   3.344249E+01   3.433235E+01   9.222696E+00   2.621365E+01   8.471777E+01   7.351308E+01   2.885088E+01   4.659593E+01   1.498118E+01   3.713298E+01   4.833924E+01   9.085578E+01   6.712957E+01   8.997391E+01   2.968340E+01   4.810673E+01   9.763023E+01   7.859619E+01   7.143571E+01   1.990325E+01   2.970822E+01   2.836666E+01   1.580754E+01   1.288059E+01   3.711499E+01   8.163290E+01   7.387354E+01   1.521093E+02   1.777413E+02   4.593531E+02   1.143189E+02   1.386586E+02   2.956413E+01   3.140543E+01   6.134476E+01
   1.042671E+01   3.551531E+01   2.694415E+01   3.434781E+01   2.593598E+01   4.795843E+01   4.340082E+01   1.251782E+01   3.733471E+01   2.384579E+01   2.480497E+01   3.456215E+01   3.561999E+01   4.871630E+01   1.476678E+02   3.828187E+02   2.045075E+02   1.468199E+02   8.554939E+01   1.099083E+02   8.094862E+01   2.697385E+01   1.192772E+01   1.087456E+01   8.613824E+01   1.069746E+02   4.992188E+01   1.088572E+02   6.452744E+01   1.783247E+01   2.503477E+01   1.377058E+02   6.307565E+01   7.270804E+01   2.945514E+01   6.290199E+01   3.825835E+01   1.078343E+02   3.392210E+01   6.895387E+01   1.777427E+01   8.683275E+00   6.081780E+00   4.942657E+00   2.290889E+01   3.830944E+01   3.122940E+01   8.232898E+01   6.079777E+01   5.331585E+01   1.359940E+02   1.180778E+02   7.941843E+01   8.363027E+01   4.226569E+01   2.531540E+01   5.629833E+01   4.922760E+01   4.194615E+01   4.733308E+01   2.080205E+02   4.977422E+02   5.164863E+02   9.823852E+01   8.044885E+01   3.038412E+02   1.045919E+02   7.102041E+01   3.901607E+01   5.754245E+01   7.960050E+01   3.487885E+02   3.572627E+02   1.144054E+02   1.421828E+02   1.119245E+02   6.828323E+01   1.820443E+01   7.079796E+00   2.631793E+01   2.001551E+01   2.544508E+01   9.104445E+01   1.286590E+02   1.931973E+02   4.297844E+02   5.709455E+02   1.303753E+02   6.856019E+01   4.992326E+01   4.992326E+01   3.100373E+01   6.396219E+01   6.396219E+01   8.757735E+01   9.327232E+01   9.327232E+01   7.848714E+01   7.848714E+01   7.848714E+01   4.276189E+01   4.276189E+01   4.276189E+01   1.983990E+01   1.983990E+01   1.983990E+01   1.983990E+01   1.983990E+01   3.069922E+01   3.069922E+01   3.069922E+01   3.069922E+01   3.069922E+01   2.249263E+01   2.249263E+01   2.249263E+01   2.249263E+01   2.249263E+01   2.249263E+01   2.249263E+01   2.662443E+01   2.662443E+01   2.662443E+01   2.662443E+01   2.662443E+01   2.662443E+01   2.662443E+01   2.662443E+01   2.662443E+01   2.662443E+01   8.627732E+01   8.627732E+01   8.627732E+01   8.627732E+01   8.627732E+01   8.627732E+01   8.627732E+01   8.627732E+01   8.627732E+01   1.647689E+01   1.647689E+01   1.647689E+01   1.647689E+01   1.647689E+01   1.647689E+01   1.647689E+01   1.011851E+01   1.011851E+01   1.011851E+01   1.011851E+01   1.011851E+01   1.208958E+01   1.208958E+01   1.208958E+01   1.208958E+01   3.896958E+01   3.896958E+01   3.896958E+01   3.910755E+01   3.910755E+01   7.846348E+01   7.846348E+01   6.398116E+01   6.398116E+01   8.403503E+01   1.563141E+02   1.632156E+02   1.632156E+02   1.630214E+02   1.646828E+02   6.341516E+01   3.325481E+01   3.501433E+01   2.435413E+01   9.100872E+00   2.819214E+01   9.374212E+01   9.209090E+01   7.764693E+01   3.914439E+01   1.249808E+01   6.223350E+01   5.582100E+01   1.028442E+02   1.028256E+02   4.207015E+01   4.748484E+01   6.039462E+01   6.124897E+01   6.995457E+01   5.826423E+01   2.158581E+01   3.026338E+01   1.951697E+01   1.126620E+01   1.043967E+01   2.570894E+01   1.127552E+02   6.804666E+01   7.365028E+01   9.051749E+01   2.279348E+02   1.708203E+02   1.875619E+02   8.392316E+01   2.133327E+01   5.525688E+01
   1.972278E+01   1.661104E+01   2.328161E+01   3.823333E+01   3.190699E+01   5.747337E+01   2.787558E+01   1.179800E+01   3.144199E+01   2.750619E+01   1.795329E+01   2.760411E+01   1.384547E+01   5.440599E+01   1.555296E+02   1.469314E+02   1.091462E+02   9.601530E+01   7.716243E+01   6.693127E+01   7.118311E+01   1.215956E+01   6.633291E+00   9.675053E+00   1.078245E+02   2.109652E+02   6.308023E+01   6.190789E+01   2.177727E+01   1.776356E+01   2.962144E+01   7.940812E+01   4.877274E+01   3.371517E+01   7.017559E+01   1.241364E+02   6.425109E+01   3.133381E+01   2.022724E+01   2.745516E+01   2.803376E+01   1.208905E+01   5.674752E+00   1.302491E+01   2.703364E+01   7.124955E+01   2.214796E+01   7.554185E+01   1.797762E+01   5.130947E+01   9.331197E+01   1.835372E+02   1.229306E+02   5.364421E+01   3.227401E+01   1.753712E+01   4.754737E+01   1.598801E+02   1.997455E+01   8.060444E+01   1.654642E+02   3.678149E+02   3.029644E+02   2.397170E+02   5.673793E+01   1.099861E+02   1.096948E+02   1.166005E+02   4.710977E+01   4.878677E+01   6.170845E+01   8.792897E+01   2.467968E+02   1.769061E+02   1.596133E+02   6.079367E+01   4.894360E+01   1.109136E+01   8.989739E+00   1.846425E+01   1.488425E+01   3.598343E+01   8.146363E+01   1.883916E+02   1.768350E+02   5.218984E+02   6.777355E+02   1.298239E+02   5.274903E+01   3.710786E+01   3.710786E+01   8.520637E+01   2.172134E+02   2.172134E+02   9.661841E+01   6.388010E+01   6.388010E+01   8.529147E+01   8.529147E+01   8.529147E+01   5.646462E+01   5.646462E+01   5.646462E+01   1.973623E+01   1.973623E+01   1.973623E+01   1.973623E+01   1.973623E+01   4.491843E+01   4.491843E+01   4.491843E+01   4.491843E+01   4.491843E+01   2.266852E+01   2.266852E+01   2.266852E+01   2.266852E+01   2.266852E+01   2.266852E+01   2.266852E+01   2.593689E+01   2.593689E+01   2.593689E+01   2.593689E+01   2.593689E+01   2.593689E+01   2.593689E+01   2.593689E+01   2.593689E+01   2.593689E+01   3.698092E+01   3.698092E+01   3.698092E+01   3.698092E+01   3.698092E+01   3.698092E+01   3.698092E+01   3.698092E+01   3.698092E+01   2.344314E+01   2.344314E+01   2.344314E+01   2.344314E+01   2.344314E+01   2.344314E+01   2.344314E+01   1.399648E+01   1.399648E+01   1.399648E+01   1.399648E+01   1.399648E+01   7.222535E+00   7.222535E+00   7.222535E+00   7.222535E+00   5.789518E+01   5.789518E+01   5.789518E+01   2.658301E+01   2.658301E+01   4.515173E+01   4.515173E+01   1.033286E+02   1.033286E+02   1.135910E+02   1.144937E+02   9.639159E+01   9.639159E+01   1.912894E+02   1.488727E+02   7.048944E+01   4.129197E+01   5.850985E+01   2.230462E+01   1.352057E+01   3.227798E+01   4.176991E+01   4.686737E+01   7.130995E+01   4.047732E+01   1.388532E+01   4.217399E+01   7.464084E+01   9.526256E+01   7.862585E+01   6.290900E+01   3.754567E+01   5.294896E+01   3.636694E+01   3.514958E+01   2.990763E+01   1.097902E+01   1.581162E+01   1.182605E+01   3.260279E+01   1.174768E+01   2.555640E+01   3.899368E+01   8.060826E+01   1.923111E+02   1.389559E+02   2.109606E+02   7.742410E+01   8.248596E+01   1.125509E+02   2.740062E+01   4.609457E+01
   3.242268E+01   3.399926E+01   3.759915E+01   2.967262E+01   3.292213E+01   3.140497E+01   1.171888E+01   2.440310E+01   1.462228E+01   3.140780E+01   4.602309E+01   3.738086E+01   1.690444E+01   5.681499E+01   3.774009E+01   8.123093E+01   7.814207E+01   4.596532E+01   5.221844E+01   7.769214E+01   1.991536E+01   1.016702E+01   5.657206E+00   2.187829E+01   5.174887E+01   7.399124E+01   4.085855E+01   2.142570E+01   2.023284E+01   2.953480E+01   3.483858E+01   5.981659E+01   3.846580E+01   2.959302E+01   1.591356E+02   1.710414E+02   1.334489E+02   5.086927E+01   3.559019E+01   1.836091E+01   6.464377E+01   3.900636E+01   1.772330E+01   9.898026E+00   1.730990E+01   1.361796E+02   1.667549E+01   1.974018E+01   1.074303E+01   3.376711E+01   5.681359E+01   1.375762E+02   1.086557E+02   7.417521E+01   1.908634E+01   1.658399E+01   1.851055E+01   5.560984E+01   1.989925E+01   6.761208E+01   5.214549E+01   3.089881E+02   2.357487E+02   2.474238E+02   2.934727E+01   4.621601E+01   6.185746E+01   5.293842E+01   5.031012E+01   6.073441E+01   3.827183E+01   7.128232E+01   2.441717E+02   2.621238E+02   1.209311E+02   4.327824E+01   7.709450E+01   1.839754E+01   1.213334E+01   1.882312E+01   1.671525E+01   5.163007E+01   8.154153E+01   1.660090E+02   2.563821E+02   2.702024E+02   2.058628E+02   3.346048E+01   6.849149E+01   3.455030E+01   3.455030E+01   5.449358E+01   1.372609E+02   1.372609E+02   1.211583E+02   8.752833E+01   8.752833E+01   6.796999E+01   6.796999E+01   6.796999E+01   4.927659E+01   4.927659E+01   4.927659E+01   4.319590E+01   4.319590E+01   4.319590E+01   4.319590E+01   4.319590E+01   4.238284E+01   4.238284E+01   4.238284E+01   4.238284E+01   4.238284E+01   3.616485E+01   3.616485E+01   3.616485E+01   3.616485E+01   3.616485E+01   3.616485E+01   3.616485E+01   3.464014E+01   3.464014E+01   3.464014E+01   3.464014E+01   3.464014E+01   3.464014E+01   3.464014E+01   3.464014E+01   3.464014E+01   3.464014E+01   6.094528E+01   6.094528E+01   6.094528E+01   6.094528E+01   6.094528E+01   6.094528E+01   6.094528E+01   6.094528E+01   6.094528E+01   1.255537E+01   1.255537E+01   1.255537E+01   1.255537E+01   1.255537E+01   1.255537E+01   1.255537E+01   3.891096E+01   3.891096E+01   3.891096E+01   3.891096E+01   3.891096E+01   5.708743E+00   5.708743E+00   5.708743E+00   5.708743E+00   2.062495E+01   2.062495E+01   2.062495E+01   1.984501E+01   1.984501E+01   1.800983E+01   1.800983E+01   9.773621E+01   9.773621E+01   1.122864E+02   1.255268E+02   1.590552E+02   1.590552E+02   1.397962E+02   7.753716E+01   1.430647E+02   5.227032E+01   7.825220E+01   7.828182E+01   4.167495E+01   7.307845E+01   6.846162E+01   4.412016E+01   6.509584E+01   1.178627E+02   2.407458E+01   7.840749E+01   1.077301E+02   6.281086E+01   7.039470E+01   7.593737E+01   3.220846E+01   1.731336E+01   2.707081E+01   2.095833E+01   1.551925E+01   1.280022E+01   9.598276E+00   7.065619E+00   2.055793E+01   9.895179E+00   1.402748E+01   1.923339E+01   1.107448E+02   2.326112E+02   1.175830E+02   2.055068E+02   4.352773E+01   5.123002E+01   5.819146E+01   6.908788E+01   9.711253E+01
   7.379095E+01   4.125089E+01   4.791558E+01   2.875871E+01   2.236434E+01   3.372876E+01   2.109438E+01   3.196294E+01   4.271442E+01   2.634345E+01   5.187971E+01   5.351396E+01   5.087056E+01   1.192307E+02   3.524892E+01   5.898272E+01   3.176048E+01   4.120095E+01   4.710418E+01   5.915216E+01   2.183379E+01   2.433590E+01   1.846119E+01   4.034229E+01   4.823523E+01   3.584843E+01   7.181014E+01   8.932837E+01   4.374718E+01   6.364909E+01   2.353413E+01   3.004413E+01   4.588671E+01   1.865280E+01   2.210864E+02   2.112327E+02   1.621958E+02   6.401232E+01   4.462075E+01   3.026547E+01   8.266657E+01   7.119629E+01   4.954608E+01   8.780581E+00   3.092585E+01   7.501504E+01   2.439312E+01   1.608596E+01   1.977341E+01   3.837446E+01   7.170495E+01   4.725913E+01   3.694799E+01   6.041161E+01   1.231751E+01   2.054947E+01   2.272039E+01   5.254498E+01   3.422514E+01   6.820671E+01   6.774821E+01   8.762173E+01   1.141273E+02   1.167315E+02   3.826062E+01   2.705903E+01   7.466183E+01   5.675524E+01   3.732269E+01   3.384434E+01   3.584766E+01   8.325033E+01   1.164065E+02   1.070208E+02   1.010886E+02   3.475177E+01   9.165107E+01   1.328606E+01   1.067185E+01   1.845950E+01   2.345180E+01   1.196344E+02   1.084826E+02   8.090590E+01   1.386707E+02   1.577764E+02   2.412800E+02   2.799843E+01   4.747775E+01   3.342086E+01   3.342086E+01   4.948963E+01   6.346157E+01   6.346157E+01   7.532365E+01   8.732177E+01   8.732177E+01   1.053389E+02   1.053389E+02   1.053389E+02   1.108999E+02   1.108999E+02   1.108999E+02   4.477974E+01   4.477974E+01   4.477974E+01   4.477974E+01   4.477974E+01   4.451011E+01   4.451011E+01   4.451011E+01   4.451011E+01   4.451011E+01   4.339816E+01   4.339816E+01   4.339816E+01   4.339816E+01   4.339816E+01   4.339816E+01   4.339816E+01   4.561015E+01   4.561015E+01   4.561015E+01   4.561015E+01   4.561015E+01   4.561015E+01   4.561015E+01   4.561015E+01   4.561015E+01   4.561015E+01   1.876414E+01   1.876414E+01   1.876414E+01   1.876414E+01   1.876414E+01   1.876414E+01   1.876414E+01   1.876414E+01   1.876414E+01   1.252572E+01   1.252572E+01   1.252572E+01   1.252572E+01   1.252572E+01   1.252572E+01   1.252572E+01   4.478595E+01   4.478595E+01   4.478595E+01   4.478595E+01   4.478595E+01   1.988835E+01   1.988835E+01   1.988835E+01   1.988835E+01   3.211951E+01   3.211951E+01   3.211951E+01   1.831649E+01   1.831649E+01   2.189662E+01   2.189662E+01   1.749228E+02   1.749228E+02   7.240836E+01   7.796719E+01   9.365163E+01   9.365163E+01   1.336383E+02   1.096976E+02   1.514221E+02   6.542278E+01   1.644392E+02   7.672609E+01   1.003330E+02   1.388861E+02   1.036754E+02   5.108526E+01   6.770821E+01   7.793139E+01   2.857065E+01   4.488336E+01   8.553513E+01   1.020416E+02   9.118272E+01   2.422492E+01   2.498839E+01   2.183617E+01   2.223799E+01   1.669746E+01   1.268757E+01   2.447818E+01   5.802935E+00   1.183588E+01   1.315592E+01   1.143339E+01   1.775048E+01   1.466138E+01   2.864240E+01   1.513040E+02   8.439970E+01   9.236107E+01   5.770748E+01   5.136621E+01   7.088775E+01   1.072036E+02   4.944476E+01