# LPF package for  MODFLOW-2005, generated by Flopy.
        53    -1E+30         0  
         1
         0
   0.000000E+00
         0
         0
INTERNAL               1 (207E15.6) -1 #hk layer 1                    
   1.603881E+02   4.426066E+01   2.604440E+01   1.686498E+01   1.805565E+01   2.397116E+01   3.800188E+01   2.749973E+01   2.883743E+02   2.686134E+02   1.330332E+02   5.653026E+01   6.292094E+01   1.281910E+02   6.962041E+01   7.091184E+01   3.301528E+01   2.371432E+01   2.625457E+01   1.431031E+01   3.207467E+01   2.462760E+01   2.393513E+01   1.068223E+02   6.324408E+01   3.537833E+01   5.006563E+01   5.151365E+01   1.222657E+02   1.879633E+02   7.607595E+01   2.522602E+01   4.052741E+01   6.902613E+01   1.190592E+02   8.721860E+01   2.002170E+02   1.195018E+02   1.324196E+02   3.385659E+02   2.424704E+02   1.907207E+02   2.328306E+02   9.917889E+01   3.355058E+01   3.988710E+01   5.867445E+00   9.846944E+00   1.186318E+01   8.412727E+00   1.418870E+01   1.303116E+01   2.797355E+01   1.769531E+01   1.967150E+01   1.998465E+01   1.786230E+01   2.273538E+01   2.629173E+01   2.600316E+01   1.609703E+01   4.311387E+01   5.360111E+01   6.900491E+01   8.539786E+01   2.407624E+02   1.551703E+02   7.953445E+01   1.653411E+01   2.892683E+01   3.084670E+01   8.515293E+01   7.691178E+01   5.484172E+01   1.158236E+01   3.262547E+01   2.186453E+01   2.348904E+01   2.381701E+01   8.946873E+01   2.990496E+02   1.400896E+03   2.518613E+02   5.289455E+01   5.785143E+01   4.089633E+01   4.895401E+01   5.065371E+01   2.152738E+02   1.830707E+02   1.830707E+02   5.032913E+02   3.339932E+02   3.339932E+02   1.727206E+02   1.265527E+02   1.265527E+02   6.916367E+01   6.916367E+01   6.916367E+01   2.046780E+01   2.046780E+01   2.046780E+01   3.073535E+01   3.073535E+01   3.073535E+01   3.073535E+01   3.073535E+01   3.369605E+01   3.369605E+01   3.369605E+01   3.369605E+01   3.369605E+01   1.261989E+01   1.261989E+01   1.261989E+01   1.261989E+01   1.261989E+01   1.261989E+01   1.261989E+01   8.110515E+00   8.110515E+00   8.110515E+00   8.110515E+00   8.110515E+00   8.110515E+00   8.110515E+00   8.110515E+00   8.110515E+00   8.110515E+00   1.346377E+01   1.346377E+01   1.346377E+01   1.346377E+01   1.346377E+01   1.346377E+01   1.346377E+01   1.346377E+01   1.346377E+01   2.265420E+01   2.265420E+01   2.265420E+01   2.265420E+01   2.265420E+01   2.265420E+01   2.265420E+01   3.895650E+01   3.895650E+01   3.895650E+01   3.895650E+01   3.895650E+01   3.068136E+01   3.068136E+01   3.068136E+01   3.068136E+01   1.280144E+02   1.280144E+02   1.280144E+02   1.589223E+02   1.589223E+02   2.075791E+02   2.075791E+02   1.200038E+02   1.200038E+02   5.219145E+01   3.352361E+01   4.698710E+01   4.698710E+01   1.345569E+02   9.630400E+01   1.162889E+02   9.699997E+01   4.674577E+01   8.602927E+01   6.382679E+01   6.346598E+01   4.861164E+01   8.942619E+00   7.201853E+00   2.477751E+01   7.367396E+01   7.726669E+01   6.640343E+01   4.026593E+01   6.164880E+01   6.227825E+01   4.126802E+01   9.100374E+01   7.243079E+01   5.261696E+01   1.030662E+02   5.141095E+01   6.680158E+01   6.635859E+01   8.515239E+01   3.673960E+01   2.998475E+01   2.657660E+01   2.755279E+01   2.908131E+01   1.934240E+01   2.364716E+01   4.161973E+01   3.007737E+01   5.442598E+01   2.341835E+02   2.455733E+02
   6.419977E+01   1.235225E+02   4.626392E+01   3.682158E+01   1.224090E+01   1.280348E+01   3.258992E+01   8.362847E+01   1.044473E+02   1.356924E+02   8.595008E+01   9.092989E+01   4.199023E+01   1.308118E+02   7.086915E+01   7.573966E+01   2.550086E+01   1.883861E+01   2.399430E+01   1.605008E+01   2.129888E+01   4.120519E+01   3.398994E+01   4.262997E+01   4.406932E+01   2.524908E+01   6.175689E+01   3.403876E+01   8.263098E+01   1.168748E+02   3.173277E+01   3.806147E+01   3.832245E+01   4.797155E+01   1.596922E+02   2.805055E+02   1.783617E+02   1.623687E+02   1.001227E+02   3.538283E+02   1.633210E+02   1.493328E+02   2.416915E+02   5.474992E+01   2.892344E+01   2.910944E+01   6.070225E+00   6.448454E+00   5.415569E+00   6.387608E+00   1.771784E+01   2.317528E+01   2.469810E+01   8.983067E+00   2.604709E+01   2.623033E+01   1.660951E+01   1.467879E+01   1.385293E+01   3.614252E+01   3.281021E+01   5.561594E+01   2.214627E+01   8.298466E+01   6.570525E+01   2.734321E+02   8.239088E+01   1.129462E+02   2.382437E+01   1.528051E+01   3.070523E+01   1.470324E+02   7.651595E+01   4.709181E+01   2.680587E+01   3.524921E+01   4.307496E+01   5.468103E+01   3.982603E+01   2.068909E+02   4.338280E+02   8.747964E+02   3.823121E+02   8.347905E+01   7.661937E+01   5.388874E+01   4.484809E+01   8.024745E+01   8.024730E+01   1.484806E+02   1.484806E+02   3.036396E+02   1.645244E+02   1.645244E+02   1.275967E+02   8.435995E+01   8.435995E+01   2.187655E+01   2.187655E+01   2.187655E+01   4.218130E+01   4.218130E+01   4.218130E+01   4.351921E+01   4.351921E+01   4.351921E+01   4.351921E+01   4.351921E+01   3.662141E+01   3.662141E+01   3.662141E+01   3.662141E+01   3.662141E+01   4.341491E+01   4.341491E+01   4.341491E+01   4.341491E+01   4.341491E+01   4.341491E+01   4.341491E+01   1.679979E+01   1.679979E+01   1.679979E+01   1.679979E+01   1.679979E+01   1.679979E+01   1.679979E+01   1.679979E+01   1.679979E+01   1.679979E+01   1.639894E+01   1.639894E+01   1.639894E+01   1.639894E+01   1.639894E+01   1.639894E+01   1.639894E+01   1.639894E+01   1.639894E+01   1.985916E+01   1.985916E+01   1.985916E+01   1.985916E+01   1.985916E+01   1.985916E+01   1.985916E+01   7.053132E+01   7.053132E+01   7.053132E+01   7.053132E+01   7.053132E+01   3.608398E+01   3.608398E+01   3.608398E+01   3.608398E+01   1.116047E+02   1.116047E+02   1.116047E+02   1.587279E+02   1.587279E+02   1.639979E+02   1.639979E+02   1.056084E+02   1.056084E+02   1.489704E+02   2.744707E+01   4.036945E+01   4.036945E+01   6.159952E+01   5.277876E+01   7.541413E+01   8.421175E+01   7.804502E+01   1.279361E+02   1.224368E+02   8.017518E+01   4.018710E+01   1.486146E+01   1.903246E+01   1.974515E+01   7.564480E+01   6.887171E+01   8.966959E+01   6.409241E+01   4.256821E+01   2.025455E+01   3.732901E+01   1.051061E+02   9.206573E+01   3.818926E+01   4.759992E+01   4.352882E+01   6.349651E+01   1.007360E+02   1.357577E+02   5.239935E+01   3.397846E+01   2.226843E+01   3.840902E+01   4.828938E+01   3.662774E+01   3.873022E+01   2.164246E+01   6.649390E+01   4.541473E+01   3.370800E+02   2.006406E+02
   3.299715E+01   5.608093E+01   4.376501E+01   1.518930E+01   1.291972E+01   2.320925E+01   2.069709E+01   6.999974E+01   1.171988E+02   1.070135E+02   8.088087E+01   9.201542E+01   5.907355E+01   9.576149E+01   8.509302E+01   6.875091E+01   2.219114E+01   7.566480E+00   2.515096E+01   1.212209E+01   1.744940E+01   3.514455E+01   5.273660E+01   5.788252E+01   7.330839E+01   4.763977E+01   1.238954E+01   2.397077E+01   4.219732E+01   8.713583E+01   4.580838E+01   3.207027E+01   4.360896E+01   4.914205E+01   1.434588E+02   2.010225E+02   2.746878E+02   4.373578E+01   9.986166E+01   1.870986E+02   3.700703E+02   1.128801E+02   1.443279E+02   8.757515E+01   3.110250E+01   1.099773E+01   1.039960E+01   6.924084E+00   5.792787E+00   4.254049E+00   1.573718E+01   3.412237E+01   1.711805E+01   1.853134E+01   1.693013E+01   2.829402E+01   1.969925E+01   4.046222E+01   2.819458E+01   4.177364E+01   5.682653E+01   6.591476E+01   3.846065E+01   5.433318E+01   5.666621E+01   1.127253E+02   1.481280E+02   9.799080E+01   2.050065E+01   1.868423E+01   2.843254E+01   1.025724E+02   1.114516E+02   1.437036E+02   5.917483E+01   4.023362E+01   1.645359E+01   4.199276E+01   1.816145E+01   2.425323E+02   2.125647E+02   5.687411E+02   2.233414E+02   2.230503E+02   1.388322E+02   6.427908E+01   9.178596E+01   8.619677E+01   7.524778E+01   2.005875E+02   2.005875E+02   3.178820E+02   2.276719E+02   2.276719E+02   6.849920E+01   4.949992E+01   4.949992E+01   1.784353E+01   1.784353E+01   1.784353E+01   4.540773E+01   4.540773E+01   4.540773E+01   2.522009E+01   2.522009E+01   2.522009E+01   2.522009E+01   2.522009E+01   7.604503E+01   7.604503E+01   7.604503E+01   7.604503E+01   7.604503E+01   6.186764E+01   6.186764E+01   6.186764E+01   6.186764E+01   6.186764E+01   6.186764E+01   6.186764E+01   3.084177E+01   3.084177E+01   3.084177E+01   3.084177E+01   3.084177E+01   3.084177E+01   3.084177E+01   3.084177E+01   3.084177E+01   3.084177E+01   1.145091E+01   1.145091E+01   1.145091E+01   1.145091E+01   1.145091E+01   1.145091E+01   1.145091E+01   1.145091E+01   1.145091E+01   2.397562E+01   2.397562E+01   2.397562E+01   2.397562E+01   2.397562E+01   2.397562E+01   2.397562E+01   3.623626E+01   3.623626E+01   3.623626E+01   3.623626E+01   3.623626E+01   1.602691E+02   1.602691E+02   1.602691E+02   1.602691E+02   5.393289E+01   5.393289E+01   5.393289E+01   1.331249E+02   1.331249E+02   1.999450E+02   1.999450E+02   6.422585E+01   6.422585E+01   2.145576E+02   3.110587E+01   3.984548E+01   3.984548E+01   6.071645E+01   6.199381E+01   1.133698E+02   9.337118E+01   1.485847E+02   1.225536E+02   1.513321E+02   1.142452E+02   3.927425E+01   3.220528E+01   2.081321E+01   2.333895E+01   5.260606E+01   4.884898E+01   7.829053E+01   4.390228E+01   1.516180E+01   1.695340E+01   1.378247E+01   1.093171E+02   6.814983E+01   6.040380E+01   6.319621E+01   9.746862E+01   1.341594E+02   1.530508E+02   1.484093E+02   9.123024E+01   3.822895E+01   1.794804E+01   7.859059E+01   5.620132E+01   4.767264E+01   5.077672E+01   2.016364E+01   2.624617E+01   3.268721E+01   3.230652E+02   1.462782E+02
   3.250913E+01   3.970921E+01   6.188245E+01   1.632412E+01   2.615770E+01   4.295674E+01   3.896682E+01   8.275273E+01   1.579170E+02   1.295412E+02   1.629754E+02   8.894054E+01   3.805042E+01   1.102957E+02   1.292372E+02   4.261134E+01   2.959684E+01   1.887417E+01   3.054339E+01   9.528152E+00   1.530148E+01   3.846292E+01   7.441493E+01   4.673045E+01   6.467520E+01   3.360446E+01   2.096075E+01   2.470022E+01   4.021133E+01   8.652766E+01   3.278377E+01   2.884647E+01   3.805854E+01   9.097294E+01   2.554105E+02   4.710841E+02   1.196175E+02   4.537639E+01   9.080058E+01   9.130933E+01   1.551104E+02   9.536680E+01   1.069457E+02   1.309453E+02   3.528503E+01   1.142764E+01   1.617523E+01   4.871790E+00   4.539366E+00   5.953631E+00   2.767439E+01   2.283380E+01   1.984395E+01   2.160781E+01   2.459559E+01   5.748163E+01   2.283165E+01   3.210387E+01   3.693265E+01   4.051357E+01   1.085818E+02   2.537729E+02   8.747032E+01   4.281760E+01   3.563206E+01   6.152273E+01   1.153995E+02   7.139783E+01   3.130222E+01   2.306308E+01   1.040462E+02   1.137071E+02   8.561493E+01   1.007786E+02   9.580822E+01   8.313081E+01   1.951327E+01   6.347514E+01   5.102351E+01   3.102455E+02   1.341798E+02   5.825327E+02   3.192346E+02   2.493408E+02   1.696061E+02   7.473264E+01   1.432460E+02   3.950736E+01   8.648149E+01   2.632793E+02   2.632793E+02   1.176717E+02   1.033960E+02   1.033960E+02   8.631824E+01   4.161943E+01   4.161943E+01   1.685147E+01   1.685147E+01   1.685147E+01   3.107724E+01   3.107724E+01   3.107724E+01   2.608435E+01   2.608435E+01   2.608435E+01   2.608435E+01   2.608435E+01   6.414644E+01   6.414644E+01   6.414644E+01   6.414644E+01   6.414644E+01   1.474903E+02   1.474903E+02   1.474903E+02   1.474903E+02   1.474903E+02   1.474903E+02   1.474903E+02   5.719535E+01   5.719535E+01   5.719535E+01   5.719535E+01   5.719535E+01   5.719535E+01   5.719535E+01   5.719535E+01   5.719535E+01   5.719535E+01   6.347695E+01   6.347695E+01   6.347695E+01   6.347695E+01   6.347695E+01   6.347695E+01   6.347695E+01   6.347695E+01   6.347695E+01   3.205210E+01   3.205210E+01   3.205210E+01   3.205210E+01   3.205210E+01   3.205210E+01   3.205210E+01   8.231583E+01   8.231583E+01   8.231583E+01   8.231583E+01   8.231583E+01   1.623308E+02   1.623308E+02   1.623308E+02   1.623308E+02   1.278004E+02   1.278004E+02   1.278004E+02   1.616421E+02   1.616421E+02   1.979514E+02   1.979514E+02   8.348994E+01   8.348994E+01   8.688087E+01   2.398702E+01   3.517212E+01   3.517212E+01   3.287241E+01   7.215417E+01   5.955916E+01   7.865036E+01   8.221915E+01   1.210026E+02   6.802728E+01   1.411400E+02   1.345721E+02   2.182419E+01   1.792417E+01   1.987711E+01   1.975381E+01   2.454424E+01   3.112135E+01   3.857010E+01   2.167110E+01   2.141034E+01   2.315982E+01   1.727020E+02   2.768801E+02   6.289957E+01   5.982545E+01   1.593311E+02   1.613075E+02   1.085998E+02   1.240673E+02   7.150250E+02   6.624550E+01   4.083677E+01   5.847128E+01   3.621965E+01   4.043633E+01   8.555997E+01   3.414905E+01   2.636123E+01   5.121668E+01   1.805335E+02   1.396153E+02
   2.584230E+01   2.104280E+01   6.685951E+01   3.870309E+01   2.164584E+01   1.316105E+01   4.387182E+01   7.366433E+01   2.874393E+02   1.235950E+02   1.491306E+02   7.657638E+01   7.698501E+01   9.349419E+01   5.017026E+01   2.576225E+01   1.412729E+01   1.733735E+01   2.594201E+01   1.050445E+01   1.841688E+01   4.741968E+01   5.746524E+01   2.101336E+01   3.661428E+01   2.830648E+01   1.998189E+01   3.905679E+01   3.085825E+01   4.368077E+01   3.384956E+01   1.918155E+01   5.986641E+01   1.842128E+02   2.970297E+02   5.431151E+02   1.358712E+02   4.672571E+01   1.006160E+02   7.544777E+01   2.026764E+02   8.560318E+01   1.438898E+02   7.249129E+01   3.251704E+01   1.094497E+01   7.793680E+00   6.850693E+00   3.336624E+00   6.602599E+00   2.868506E+01   4.992333E+01   7.601901E+01   2.809408E+01   2.896250E+01   2.891316E+01   3.602173E+01   2.275370E+01   2.997226E+01   4.787830E+01   1.358402E+02   1.586448E+02   8.088391E+01   4.655964E+01   8.599860E+01   8.615360E+01   7.052661E+01   3.633764E+01   3.459488E+01   7.118469E+01   1.057285E+02   1.586322E+02   1.426857E+02   1.968618E+02   2.209032E+02   8.723225E+01   3.211821E+01   4.294311E+01   1.782251E+02   2.479034E+02   2.159061E+02   2.657507E+02   2.823189E+02   1.941307E+02   1.305109E+02   1.422017E+02   1.440184E+02   6.230602E+01   1.436781E+02   4.179968E+02   4.179968E+02   2.304429E+02   6.463421E+01   6.463421E+01   6.825948E+01   6.028741E+01   6.028741E+01   1.775445E+01   1.775445E+01   1.775445E+01   3.890428E+01   3.890428E+01   3.890428E+01   3.394844E+01   3.394844E+01   3.394844E+01   3.394844E+01   3.394844E+01   6.299504E+01   6.299504E+01   6.299504E+01   6.299504E+01   6.299504E+01   3.381093E+01   3.381093E+01   3.381093E+01   3.381093E+01   3.381093E+01   3.381093E+01   3.381093E+01   1.093066E+02   1.093066E+02   1.093066E+02   1.093066E+02   1.093066E+02   1.093066E+02   1.093066E+02   1.093066E+02   1.093066E+02   1.093066E+02   8.768048E+01   8.768048E+01   8.768048E+01   8.768048E+01   8.768048E+01   8.768048E+01   8.768048E+01   8.768048E+01   8.768048E+01   5.179664E+01   5.179664E+01   5.179664E+01   5.179664E+01   5.179664E+01   5.179664E+01   5.179664E+01   8.683356E+01   8.683356E+01   8.683356E+01   8.683356E+01   8.683356E+01   2.235518E+02   2.235518E+02   2.235518E+02   2.235518E+02   9.169803E+01   9.169803E+01   9.169803E+01   9.244376E+01   9.244376E+01   2.128850E+02   2.128850E+02   7.323390E+01   7.323390E+01   4.851264E+01   3.218978E+01   2.765579E+01   2.765579E+01   3.668028E+01   3.267006E+01   4.418047E+01   4.780832E+01   7.990565E+01   9.954697E+01   3.675043E+01   2.497697E+02   1.498053E+02   4.350706E+01   4.671558E+01   2.300759E+01   2.971721E+01   2.082524E+01   3.824292E+01   5.075871E+01   3.018942E+01   2.213648E+01   5.579736E+01   1.666921E+02   1.945995E+02   5.301355E+01   4.666307E+01   1.824885E+02   1.902815E+02   2.478625E+02   3.271766E+02   5.188983E+02   1.184061E+02   5.405731E+01   9.718151E+01   5.057343E+01   3.900541E+01   1.063998E+02   4.542722E+01   2.550073E+01   9.028020E+01   8.806261E+01   1.207379E+02
   2.112560E+01   2.525499E+01   4.725444E+01   5.042455E+01   2.296636E+01   1.205040E+01   3.300056E+01   1.336122E+02   1.195744E+02   5.768077E+01   9.704163E+01   5.637194E+01   6.659435E+01   3.853561E+01   9.941130E+01   4.017250E+01   2.684623E+01   1.894825E+01   3.123046E+01   1.298041E+01   2.426316E+01   3.822084E+01   5.348134E+01   1.680282E+01   1.519905E+01   1.606355E+01   2.966769E+01   4.738707E+01   2.862055E+01   6.491192E+01   3.415152E+01   2.587958E+01   4.630967E+01   1.251698E+02   3.062998E+02   4.622339E+02   8.168568E+01   4.576504E+01   8.988822E+01   3.079837E+01   1.130415E+02   6.481487E+01   4.808697E+01   3.811326E+01   2.741786E+01   2.917188E+01   1.702487E+01   6.022757E+00   3.011340E+00   1.117947E+01   7.401474E+01   6.172347E+01   8.066000E+01   4.576271E+01   2.991782E+01   3.313979E+01   3.081563E+01   3.571483E+01   5.508030E+01   7.532198E+01   2.390781E+02   2.804100E+02   2.702270E+02   6.723215E+01   7.600131E+01   2.706651E+02   2.898446E+02   1.151580E+02   8.770219E+01   6.275450E+01   1.906972E+02   1.941022E+02   1.855639E+02   3.326855E+02   1.242281E+02   5.421197E+01   4.003862E+01   3.760580E+01   1.392830E+02   8.114958E+01   2.759199E+02   1.539036E+02   3.029035E+02   1.579794E+02   1.431644E+02   1.610874E+02   8.128304E+01   4.386961E+01   7.843748E+01   1.292287E+02   1.292287E+02   2.381378E+02   7.751614E+01   7.751614E+01   4.311758E+01   2.364089E+01   2.364089E+01   2.811452E+01   2.811452E+01   2.811452E+01   3.347864E+01   3.347864E+01   3.347864E+01   1.711708E+01   1.711708E+01   1.711708E+01   1.711708E+01   1.711708E+01   2.267807E+01   2.267807E+01   2.267807E+01   2.267807E+01   2.267807E+01   5.488839E+01   5.488839E+01   5.488839E+01   5.488839E+01   5.488839E+01   5.488839E+01   5.488839E+01   2.470909E+02   2.470909E+02   2.470909E+02   2.470909E+02   2.470909E+02   2.470909E+02   2.470909E+02   2.470909E+02   2.470909E+02   2.470909E+02   7.844389E+01   7.844389E+01   7.844389E+01   7.844389E+01   7.844389E+01   7.844389E+01   7.844389E+01   7.844389E+01   7.844389E+01   2.990657E+01   2.990657E+01   2.990657E+01   2.990657E+01   2.990657E+01   2.990657E+01   2.990657E+01   9.288136E+01   9.288136E+01   9.288136E+01   9.288136E+01   9.288136E+01   1.651841E+02   1.651841E+02   1.651841E+02   1.651841E+02   1.462415E+02   1.462415E+02   1.462415E+02   1.746204E+02   1.746204E+02   2.921843E+02   2.921843E+02   1.017276E+02   1.017276E+02   1.261412E+02   7.071662E+01   2.587880E+01   2.587880E+01   5.592828E+01   4.297918E+01   4.597543E+01   4.963553E+01   6.414571E+01   5.450638E+01   7.794767E+01   8.300986E+01   7.730761E+01   4.587189E+01   1.648016E+02   9.753950E+00   1.625083E+01   2.364311E+01   9.065243E+01   8.035162E+01   1.987446E+01   1.741987E+01   3.917921E+01   9.956399E+01   1.341668E+02   3.647226E+01   1.220644E+02   3.410584E+02   2.881638E+02   2.049161E+02   3.775254E+02   4.700669E+02   2.553373E+02   1.125541E+02   1.147204E+02   8.475929E+01   2.949662E+01   7.033190E+01   3.811069E+01   3.361126E+01   6.548301E+01   3.186795E+01   1.039803E+02
   2.012133E+01   1.424077E+01   3.472242E+01   2.899486E+01   1.144607E+01   7.428899E+00   2.107200E+01   5.168998E+01   7.050417E+01   1.378710E+02   7.829028E+01   1.023003E+02   1.041987E+02   3.733069E+01   5.755592E+01   6.417936E+01   3.452916E+01   2.516109E+01   5.082319E+01   1.556829E+01   3.414199E+01   3.803667E+01   6.603204E+01   2.051690E+01   3.446879E+01   1.301028E+01   1.826935E+01   5.093588E+01   2.039594E+01   4.146568E+01   7.223274E+01   4.563442E+01   7.429232E+01   1.301644E+02   4.663130E+02   2.092535E+02   9.526025E+01   7.809039E+01   9.248101E+01   5.644524E+01   2.385931E+02   8.323371E+01   3.169365E+01   2.420919E+01   2.774512E+01   1.689408E+01   2.630965E+01   1.192463E+01   9.743362E+00   9.487535E+00   4.762025E+01   5.738245E+01   6.983588E+01   7.897560E+01   6.707921E+01   3.308917E+01   3.537428E+01   6.106493E+01   1.244844E+02   1.571760E+02   1.082985E+02   1.904113E+02   1.570451E+02   1.083122E+02   1.868483E+02   7.747510E+02   2.392298E+02   1.332488E+02   1.395006E+02   1.420493E+02   1.998418E+02   2.131775E+02   2.576685E+02   2.824930E+02   1.259059E+02   4.964504E+01   2.091254E+01   4.492540E+01   5.499928E+01   9.088474E+01   1.391213E+02   7.103384E+01   1.096348E+02   1.694291E+02   8.965540E+01   9.029927E+01   4.481219E+01   2.306287E+01   4.876975E+01   7.302559E+01   7.302559E+01   1.133697E+02   8.855045E+01   8.855045E+01   5.441474E+01   4.392609E+01   4.392609E+01   2.088290E+01   2.088290E+01   2.088290E+01   1.659578E+01   1.659578E+01   1.659578E+01   1.403500E+01   1.403500E+01   1.403500E+01   1.403500E+01   1.403500E+01   2.003294E+01   2.003294E+01   2.003294E+01   2.003294E+01   2.003294E+01   2.916374E+01   2.916374E+01   2.916374E+01   2.916374E+01   2.916374E+01   2.916374E+01   2.916374E+01   3.804433E+01   3.804433E+01   3.804433E+01   3.804433E+01   3.804433E+01   3.804433E+01   3.804433E+01   3.804433E+01   3.804433E+01   3.804433E+01   7.570042E+01   7.570042E+01   7.570042E+01   7.570042E+01   7.570042E+01   7.570042E+01   7.570042E+01   7.570042E+01   7.570042E+01   6.576796E+01   6.576796E+01   6.576796E+01   6.576796E+01   6.576796E+01   6.576796E+01   6.576796E+01   3.556284E+01   3.556284E+01   3.556284E+01   3.556284E+01   3.556284E+01   9.621563E+01   9.621563E+01   9.621563E+01   9.621563E+01   1.362569E+02   1.362569E+02   1.362569E+02   8.280907E+01   8.280907E+01   1.160761E+02   1.160761E+02   1.705774E+02   1.705774E+02   2.079310E+02   4.933241E+01   3.238994E+01   3.238994E+01   4.281674E+01   2.166889E+01   5.434726E+01   5.261134E+01   3.969431E+01   2.538947E+01   5.511484E+01   3.648913E+01   8.854126E+01   4.445185E+01   7.255069E+01   9.805030E+00   1.347588E+01   4.130803E+01   9.578399E+01   4.530627E+01   5.930689E+01   3.876360E+01   3.771089E+01   7.426997E+01   1.262913E+02   3.863863E+01   1.103086E+02   1.977998E+02   3.082707E+02   2.752051E+02   4.374183E+02   3.749139E+02   2.492452E+02   5.007319E+01   3.797757E+01   7.120602E+01   3.099733E+01   4.786555E+01   2.829630E+01   1.680488E+01   1.441576E+01   1.761813E+01   2.213849E+01
   2.385357E+01   2.068746E+01   6.363361E+01   2.501767E+01   9.196787E+00   1.136070E+01   1.022504E+01   3.263232E+01   4.240208E+01   1.565916E+02   7.001305E+01   7.478182E+01   5.727171E+01   6.693165E+01   3.712856E+01   5.069348E+01   4.617359E+01   2.181345E+01   7.914350E+01   2.918448E+01   2.078571E+01   6.170230E+01   8.238306E+01   1.273353E+01   7.010793E+01   7.925637E+00   9.968651E+00   5.273037E+01   1.396490E+01   2.687070E+01   4.504349E+01   5.347432E+01   9.771129E+01   2.690865E+02   3.645567E+02   1.508373E+02   2.085888E+02   5.696880E+01   9.016083E+01   7.438008E+01   1.308814E+02   1.199955E+02   1.619327E+02   2.126551E+01   5.238928E+01   2.911593E+01   2.147839E+01   1.408700E+01   1.567224E+01   1.965092E+01   6.155223E+01   9.701332E+01   5.778110E+01   1.316915E+02   6.573667E+01   6.427566E+01   3.607092E+01   7.555100E+01   7.848932E+01   1.056604E+02   7.382050E+01   1.823161E+02   1.507546E+02   8.869187E+01   2.812682E+02   5.505424E+02   4.353685E+02   1.484772E+02   5.669436E+01   1.099934E+02   1.194440E+02   2.090808E+02   4.208626E+02   3.705646E+02   1.136337E+02   3.441772E+01   1.783554E+01   9.177588E+00   2.347611E+01   2.753359E+01   8.938519E+01   1.107616E+02   1.158565E+02   1.721243E+02   2.126008E+02   7.092512E+01   2.726349E+01   3.227084E+01   8.606699E+01   7.877813E+01   7.877813E+01   1.634022E+02   1.458079E+02   1.458079E+02   6.196095E+01   7.211723E+01   7.211723E+01   5.139347E+01   5.139347E+01   5.139347E+01   5.102428E+01   5.102428E+01   5.102428E+01   3.050370E+01   3.050370E+01   3.050370E+01   3.050370E+01   3.050370E+01   3.070538E+01   3.070538E+01   3.070538E+01   3.070538E+01   3.070538E+01   4.085978E+01   4.085978E+01   4.085978E+01   4.085978E+01   4.085978E+01   4.085978E+01   4.085978E+01   3.683182E+01   3.683182E+01   3.683182E+01   3.683182E+01   3.683182E+01   3.683182E+01   3.683182E+01   3.683182E+01   3.683182E+01   3.683182E+01   3.622659E+01   3.622659E+01   3.622659E+01   3.622659E+01   3.622659E+01   3.622659E+01   3.622659E+01   3.622659E+01   3.622659E+01   3.577820E+01   3.577820E+01   3.577820E+01   3.577820E+01   3.577820E+01   3.577820E+01   3.577820E+01   3.785749E+01   3.785749E+01   3.785749E+01   3.785749E+01   3.785749E+01   1.132428E+02   1.132428E+02   1.132428E+02   1.132428E+02   1.081998E+02   1.081998E+02   1.081998E+02   2.882959E+01   2.882959E+01   4.824147E+01   4.824147E+01   1.438798E+02   1.438798E+02   1.632831E+02   6.408422E+01   4.169540E+01   4.169540E+01   1.904489E+01   3.124889E+01   3.532801E+01   4.290718E+01   4.736993E+01   2.544848E+01   3.258275E+01   2.064003E+01   1.149815E+02   3.618773E+01   8.322883E+01   2.841509E+01   2.950215E+01   4.578506E+01   1.787089E+02   6.929994E+01   4.655604E+01   3.964450E+01   6.257980E+01   5.259772E+01   2.064628E+02   6.138838E+01   1.039292E+02   2.046253E+02   2.131831E+02   1.485923E+02   1.844530E+02   2.503338E+02   1.109374E+02   2.536947E+01   3.679943E+01   1.008454E+02   2.851716E+01   2.870516E+01   1.292054E+01   1.017569E+01   3.794173E+00   1.294326E+01   9.558476E+00
   3.786536E+01   3.854943E+01   1.274771E+02   2.679330E+01   1.423226E+01   1.549927E+01   9.378710E+00   2.573212E+01   4.228083E+01   1.131270E+02   7.898414E+01   5.585606E+01   2.570291E+01   5.811307E+01   5.944306E+01   8.494244E+01   2.924168E+01   2.332355E+01   5.132772E+01   2.617417E+01   1.561889E+01   4.947614E+01   1.081950E+02   2.149332E+01   1.555029E+01   1.377928E+01   2.574553E+01   3.168526E+01   2.727061E+01   1.156822E+01   2.685566E+01   9.286041E+01   1.511008E+02   2.715033E+02   5.032522E+02   1.904628E+02   3.981995E+02   1.826917E+02   1.483499E+02   1.736444E+02   2.526948E+02   1.284250E+02   3.278037E+02   3.195241E+01   3.081890E+01   1.691124E+01   1.985641E+01   1.722089E+01   1.451810E+01   1.498857E+01   3.395186E+01   9.901379E+01   1.031707E+02   1.414395E+02   1.087886E+02   5.152511E+01   4.504139E+01   5.828680E+01   9.084874E+01   1.131490E+02   1.376300E+02   3.632979E+02   9.399597E+01   1.682156E+02   1.251135E+02   6.473278E+02   3.628877E+02   1.826006E+02   1.438284E+01   1.395217E+02   1.193970E+02   1.742823E+02   1.980661E+02   3.085496E+02   1.495165E+02   3.615604E+01   1.148728E+01   7.276311E+00   1.548095E+01   1.665082E+01   6.961890E+01   9.596529E+01   1.808320E+02   2.106690E+02   1.086082E+02   4.624084E+01   2.004791E+01   3.508866E+01   1.544766E+02   3.638531E+01   3.638531E+01   7.775478E+01   1.283881E+02   1.283881E+02   9.853504E+01   8.857059E+01   8.857059E+01   1.328785E+02   1.328785E+02   1.328785E+02   3.098307E+01   3.098307E+01   3.098307E+01   1.395143E+01   1.395143E+01   1.395143E+01   1.395143E+01   1.395143E+01   1.241574E+01   1.241574E+01   1.241574E+01   1.241574E+01   1.241574E+01   6.191441E+01   6.191441E+01   6.191441E+01   6.191441E+01   6.191441E+01   6.191441E+01   6.191441E+01   5.218503E+01   5.218503E+01   5.218503E+01   5.218503E+01   5.218503E+01   5.218503E+01   5.218503E+01   5.218503E+01   5.218503E+01   5.218503E+01   2.021870E+01   2.021870E+01   2.021870E+01   2.021870E+01   2.021870E+01   2.021870E+01   2.021870E+01   2.021870E+01   2.021870E+01   2.904413E+01   2.904413E+01   2.904413E+01   2.904413E+01   2.904413E+01   2.904413E+01   2.904413E+01   3.456370E+01   3.456370E+01   3.456370E+01   3.456370E+01   3.456370E+01   1.720083E+02   1.720083E+02   1.720083E+02   1.720083E+02   1.467120E+02   1.467120E+02   1.467120E+02   3.813165E+01   3.813165E+01   9.678944E+01   9.678944E+01   1.009802E+02   1.009802E+02   2.106742E+02   1.849241E+02   1.034719E+02   1.034719E+02   2.724623E+01   1.804558E+01   2.716960E+01   5.053965E+01   6.354136E+01   2.804902E+01   4.033130E+01   3.026675E+01   6.050929E+01   3.852954E+01   3.498176E+01   1.857821E+01   4.368827E+01   7.776070E+01   1.238291E+02   2.393652E+02   3.764959E+01   3.478380E+01   2.628651E+01   3.819252E+01   1.342092E+02   4.651915E+01   5.259560E+01   1.430928E+02   2.663077E+02   2.393146E+02   1.933455E+02   1.366190E+02   4.919320E+01   3.050884E+01   3.375306E+01   8.387864E+01   3.070430E+01   1.440595E+01   9.340072E+00   5.881712E+00   2.237793E+00   9.007367E+00   9.618206E+00