# LPF package for  MODFLOW-2005, generated by Flopy.
        53    -1E+30         0  
         1
         0
   0.000000E+00
         0
         0
INTERNAL               1 (207E15.6) -1 #hk layer 1                    
   5.467506E+00   4.199367E+00   2.891466E+01   7.941290E+01   1.378764E+02   4.820643E+01   2.961253E+01   4.763039E+01   9.042119E+01   2.597978E+01   2.293285E+01   7.758005E+01   3.388691E+01   5.219637E+01   1.363367E+02   4.356651E+01   3.141355E+01   2.647535E+01   2.813103E+01   8.610713E+00   1.257888E+01   1.579068E+01   2.144169E+01   2.762963E+01   1.622494E+01   2.120862E+01   2.913739E+01   2.036657E+01   2.449879E+01   2.102530E+01   9.038157E+00   2.612590E+01   1.114234E+01   5.126411E+01   2.325281E+01   8.373853E+01   1.214394E+02   4.109031E+01   4.663610E+01   3.223328E+01   2.238490E+01   3.819748E+01   5.720560E+01   5.718117E+01   1.524912E+01   6.181861E+00   2.078122E+01   4.044699E+01   1.901768E+02   1.676288E+02   1.623595E+02   8.869401E+01   7.403057E+01   6.440660E+01   4.210867E+01   6.494557E+01   1.267275E+02   1.166127E+02   6.458722E+01   5.327801E+01   3.561613E+01   2.253022E+01   1.997065E+01   5.743187E+00   9.012302E+00   1.605241E+01   3.735938E+01   4.178836E+01   5.529469E+01   3.444954E+01   1.000761E+01   1.054562E+01   3.207896E+01   3.629687E+01   3.838022E+01   5.142940E+01   4.965087E+01   4.837256E+01   8.884083E+01   1.848504E+01   4.698536E+01   8.877007E+01   8.863461E+01   7.517966E+01   1.342477E+02   4.190836E+01   7.190573E+01   4.111636E+01   5.316800E+01   4.481027E+01   4.481027E+01   5.512721E+01   7.947353E+01   7.947353E+01   3.183922E+01   1.949473E+01   1.949473E+01   1.228438E+01   1.228438E+01   1.228438E+01   1.151749E+01   1.151749E+01   1.151749E+01   1.182201E+01   1.182201E+01   1.182201E+01   1.182201E+01   1.182201E+01   2.429015E+01   2.429015E+01   2.429015E+01   2.429015E+01   2.429015E+01   4.014264E+00   4.014264E+00   4.014264E+00   4.014264E+00   4.014264E+00   4.014264E+00   4.014264E+00   7.027447E+00   7.027447E+00   7.027447E+00   7.027447E+00   7.027447E+00   7.027447E+00   7.027447E+00   7.027447E+00   7.027447E+00   7.027447E+00   3.971502E+00   3.971502E+00   3.971502E+00   3.971502E+00   3.971502E+00   3.971502E+00   3.971502E+00   3.971502E+00   3.971502E+00   1.276478E+01   1.276478E+01   1.276478E+01   1.276478E+01   1.276478E+01   1.276478E+01   1.276478E+01   2.786723E+01   2.786723E+01   2.786723E+01   2.786723E+01   2.786723E+01   5.666573E+01   5.666573E+01   5.666573E+01   5.666573E+01   1.442888E+02   1.442888E+02   1.442888E+02   8.885941E+01   8.885941E+01   6.258703E+01   6.258703E+01   6.041957E+01   6.041957E+01   4.703014E+01   1.587533E+02   3.773778E+01   3.773778E+01   3.395498E+01   2.456711E+01   5.319718E+01   4.819455E+01   1.205722E+02   2.520318E+02   5.216296E+01   1.303584E+01   1.489073E+01   5.571218E+01   4.214270E+01   8.503919E+01   2.179369E+02   1.503414E+02   2.910705E+01   2.341408E+01   1.372498E+01   1.264135E+01   9.597378E+00   2.024907E+01   1.570201E+01   2.397100E+01   4.254947E+01   6.163309E+01   4.218151E+01   3.814241E+01   4.317044E+01   1.769167E+01   3.803303E+01   1.751112E+02   2.003571E+02   2.408076E+02   1.018247E+02   4.410466E+01   2.712405E+01   2.618734E+01   1.974252E+01   2.498586E+01   1.946548E+01
   6.528574E+00   3.795299E+00   2.365777E+01   7.213947E+01   1.516969E+02   1.821108E+01   3.268346E+01   4.055386E+01   3.285417E+01   4.006482E+01   1.851650E+01   2.412419E+01   3.649792E+01   3.385998E+01   1.043142E+02   4.691489E+01   6.472694E+01   1.428441E+01   3.406538E+01   1.642185E+01   3.398881E+01   1.746478E+01   3.015393E+01   1.850910E+01   1.968382E+01   2.380347E+01   3.282254E+01   1.876689E+01   1.304465E+01   3.801266E+01   1.292334E+01   2.836868E+01   1.617501E+01   7.283179E+01   3.541041E+01   1.510191E+02   9.922585E+01   5.420245E+01   3.821763E+01   5.846398E+01   3.267633E+01   6.892742E+01   7.084361E+01   5.481022E+01   1.633210E+01   5.980143E+00   1.887743E+01   7.836918E+01   1.931151E+02   1.398112E+02   6.873589E+01   7.209195E+01   4.975470E+01   9.295016E+01   6.404065E+01   8.997960E+01   1.243159E+02   6.958305E+01   1.617538E+02   5.339536E+01   2.384767E+01   3.500972E+01   1.625623E+01   1.192435E+01   9.195871E+00   1.889430E+01   3.855530E+01   4.617787E+01   6.443705E+01   7.445960E+01   1.092649E+01   1.395403E+01   1.184781E+01   2.546635E+01   4.421556E+01   3.086316E+01   4.896310E+01   3.513354E+01   4.646249E+01   2.144070E+01   4.059216E+01   1.051741E+02   1.126323E+02   9.266973E+01   1.057325E+02   7.911817E+01   6.369864E+01   2.109620E+01   2.250743E+01   6.812173E+01   6.812173E+01   4.501862E+01   7.795033E+01   7.795033E+01   4.044316E+01   1.297210E+01   1.297210E+01   4.658708E+00   4.658708E+00   4.658708E+00   9.262403E+00   9.262403E+00   9.262403E+00   2.120854E+01   2.120854E+01   2.120854E+01   2.120854E+01   2.120854E+01   1.568975E+01   1.568975E+01   1.568975E+01   1.568975E+01   1.568975E+01   1.214243E+01   1.214243E+01   1.214243E+01   1.214243E+01   1.214243E+01   1.214243E+01   1.214243E+01   7.683411E+00   7.683411E+00   7.683411E+00   7.683411E+00   7.683411E+00   7.683411E+00   7.683411E+00   7.683411E+00   7.683411E+00   7.683411E+00   5.723085E+00   5.723085E+00   5.723085E+00   5.723085E+00   5.723085E+00   5.723085E+00   5.723085E+00   5.723085E+00   5.723085E+00   1.424544E+01   1.424544E+01   1.424544E+01   1.424544E+01   1.424544E+01   1.424544E+01   1.424544E+01   5.358012E+01   5.358012E+01   5.358012E+01   5.358012E+01   5.358012E+01   4.694635E+01   4.694635E+01   4.694635E+01   4.694635E+01   1.740103E+02   1.740103E+02   1.740103E+02   7.634328E+01   7.634328E+01   7.269868E+01   7.269868E+01   5.048202E+01   5.048202E+01   4.357796E+01   2.294785E+02   9.943115E+01   9.943115E+01   3.732601E+01   2.116109E+01   9.195776E+01   4.286821E+01   1.788479E+02   1.230792E+02   2.693060E+01   1.360566E+01   2.487698E+01   2.173742E+01   3.697670E+01   6.748408E+01   3.608399E+02   1.848930E+02   5.455474E+01   1.272959E+01   1.210108E+01   1.174269E+01   1.220890E+01   1.020728E+01   3.045451E+01   2.175600E+01   3.015857E+01   7.322963E+01   4.661109E+01   1.314803E+01   2.143848E+01   2.071466E+01   2.339192E+01   2.835547E+02   3.053125E+02   1.945607E+02   2.144537E+02   4.758275E+01   1.879409E+01   1.336103E+01   1.166365E+01   2.527531E+01   2.183140E+01
   5.131932E+00   4.761201E+00   1.858987E+01   4.418947E+01   4.889883E+01   2.425182E+01   1.638220E+01   1.215256E+01   1.847614E+01   1.706533E+01   1.979410E+01   2.542408E+01   1.803478E+01   2.551713E+01   6.805059E+01   4.009733E+01   3.144180E+01   4.555759E+01   3.779390E+01   5.071978E+01   5.853643E+01   3.405415E+01   2.818254E+01   1.229697E+01   3.318796E+01   1.224215E+01   1.375790E+01   1.605064E+01   1.671000E+01   2.425143E+01   1.728245E+01   2.491395E+01   1.227771E+01   7.252116E+01   8.781464E+01   8.560404E+01   1.157792E+02   1.386611E+02   7.157843E+01   7.368073E+01   7.439451E+01   6.625243E+01   6.824641E+01   2.602310E+01   2.671082E+01   1.480881E+01   3.157666E+01   4.504741E+01   1.103209E+02   6.968061E+01   1.013983E+02   8.691192E+01   4.664267E+01   2.023972E+01   5.834156E+01   7.358062E+01   6.162759E+01   5.942407E+01   3.124063E+02   1.336058E+02   5.475416E+01   5.865271E+01   2.545109E+01   2.548351E+01   1.788431E+01   2.315497E+01   4.989168E+01   4.835221E+01   8.442684E+01   6.146989E+01   1.630082E+01   2.314726E+01   4.151048E+01   4.368122E+01   3.718237E+01   3.040419E+01   7.549388E+01   4.055816E+01   9.513130E+00   1.727739E+01   3.953432E+01   1.349404E+02   1.927131E+02   3.652760E+02   1.961595E+02   6.887243E+01   6.709241E+01   6.091394E+01   2.758777E+01   8.172512E+01   8.172512E+01   8.620538E+01   6.141978E+01   6.141978E+01   4.417979E+01   9.811983E+00   9.811983E+00   2.760931E+00   2.760931E+00   2.760931E+00   7.846305E+00   7.846305E+00   7.846305E+00   2.222695E+01   2.222695E+01   2.222695E+01   2.222695E+01   2.222695E+01   9.866270E+00   9.866270E+00   9.866270E+00   9.866270E+00   9.866270E+00   5.587114E+00   5.587114E+00   5.587114E+00   5.587114E+00   5.587114E+00   5.587114E+00   5.587114E+00   4.059798E+00   4.059798E+00   4.059798E+00   4.059798E+00   4.059798E+00   4.059798E+00   4.059798E+00   4.059798E+00   4.059798E+00   4.059798E+00   3.793528E+00   3.793528E+00   3.793528E+00   3.793528E+00   3.793528E+00   3.793528E+00   3.793528E+00   3.793528E+00   3.793528E+00   1.572134E+01   1.572134E+01   1.572134E+01   1.572134E+01   1.572134E+01   1.572134E+01   1.572134E+01   4.447401E+01   4.447401E+01   4.447401E+01   4.447401E+01   4.447401E+01   4.267701E+01   4.267701E+01   4.267701E+01   4.267701E+01   2.198250E+02   2.198250E+02   2.198250E+02   5.946942E+01   5.946942E+01   6.729424E+01   6.729424E+01   2.851969E+01   2.851969E+01   8.108823E+01   1.035114E+02   9.300558E+01   9.300558E+01   4.759915E+01   3.222555E+01   3.286008E+01   5.893491E+01   6.001691E+01   1.800376E+02   7.093694E+01   3.135673E+01   2.613965E+01   2.255185E+01   3.715341E+01   5.794830E+01   2.747952E+02   7.250803E+01   4.230499E+01   1.595315E+01   1.829791E+01   1.197437E+01   9.150284E+00   2.524990E+01   8.295596E+01   7.819381E+01   6.412636E+01   4.364278E+01   2.075219E+01   1.646284E+01   1.583133E+01   1.700260E+01   3.361303E+01   3.415579E+02   9.539635E+01   9.170364E+01   1.162783E+02   6.937620E+01   2.562412E+01   2.580887E+01   3.282485E+01   2.836551E+01   4.607880E+01
   8.966146E+00   4.383892E+00   2.397456E+01   2.392536E+01   5.441819E+01   1.388605E+01   1.429096E+01   8.818868E+00   9.715359E+00   1.044859E+01   1.866614E+01   1.894792E+01   1.368969E+01   4.836666E+01   4.691945E+01   5.533733E+01   2.865536E+01   2.972989E+01   6.568825E+01   5.485017E+01   3.217332E+01   1.369088E+01   8.677768E+00   4.078945E+01   5.517113E+01   1.906752E+01   1.601330E+01   2.453977E+01   1.437012E+01   5.779526E+01   3.243447E+01   2.262252E+01   1.968215E+01   2.066798E+01   3.835484E+01   3.292742E+01   5.775905E+01   1.463929E+02   4.354287E+01   2.536636E+01   6.895592E+01   3.484710E+01   1.966053E+01   2.604496E+01   1.210552E+01   2.450223E+01   2.694136E+01   6.284854E+01   1.132891E+02   4.118586E+01   8.496105E+01   5.785390E+01   4.613582E+01   4.714765E+01   5.127232E+01   3.617517E+01   5.819243E+01   5.447819E+01   1.024435E+02   9.130418E+01   5.993236E+01   6.139605E+01   2.979256E+01   7.079369E+01   3.243182E+01   3.225637E+01   5.779345E+01   4.958206E+01   1.280610E+02   1.743881E+01   1.579417E+01   4.059130E+01   2.618837E+01   3.819982E+01   2.609412E+01   2.945619E+01   7.131017E+01   3.219595E+01   8.867005E+00   1.040318E+01   1.032088E+02   1.923270E+02   2.585115E+02   3.682719E+02   1.215867E+02   8.149118E+01   4.204440E+01   5.385161E+01   4.388120E+01   1.325505E+02   1.325505E+02   7.633248E+01   4.129803E+01   4.129803E+01   3.042582E+01   1.269870E+01   1.269870E+01   4.764043E+00   4.764043E+00   4.764043E+00   5.983759E+00   5.983759E+00   5.983759E+00   3.400539E+01   3.400539E+01   3.400539E+01   3.400539E+01   3.400539E+01   1.685331E+01   1.685331E+01   1.685331E+01   1.685331E+01   1.685331E+01   1.000280E+01   1.000280E+01   1.000280E+01   1.000280E+01   1.000280E+01   1.000280E+01   1.000280E+01   9.497039E+00   9.497039E+00   9.497039E+00   9.497039E+00   9.497039E+00   9.497039E+00   9.497039E+00   9.497039E+00   9.497039E+00   9.497039E+00   7.718430E+00   7.718430E+00   7.718430E+00   7.718430E+00   7.718430E+00   7.718430E+00   7.718430E+00   7.718430E+00   7.718430E+00   1.145763E+01   1.145763E+01   1.145763E+01   1.145763E+01   1.145763E+01   1.145763E+01   1.145763E+01   3.737870E+01   3.737870E+01   3.737870E+01   3.737870E+01   3.737870E+01   2.936194E+01   2.936194E+01   2.936194E+01   2.936194E+01   1.691723E+02   1.691723E+02   1.691723E+02   3.439294E+01   3.439294E+01   5.451665E+01   5.451665E+01   2.479978E+01   2.479978E+01   5.467533E+01   1.081011E+02   9.024793E+01   9.024793E+01   4.762494E+01   2.550778E+01   2.276444E+01   5.264740E+01   8.516550E+01   9.562090E+01   1.361497E+02   4.148207E+01   3.824541E+01   9.125245E+01   2.846445E+01   3.059030E+01   1.124975E+02   9.393691E+01   3.128593E+01   2.963071E+01   1.589034E+01   1.732809E+01   1.599542E+01   2.862212E+01   6.711313E+01   2.026336E+02   1.142260E+02   5.164518E+01   1.571301E+01   1.706704E+01   1.886676E+01   1.889020E+01   3.727006E+01   1.603152E+02   6.449918E+01   7.486596E+01   1.650968E+02   9.472616E+01   4.520272E+01   4.299580E+01   3.250214E+01   3.747392E+01   8.355808E+01
   2.062019E+01   7.365464E+00   1.439562E+01   3.679213E+01   5.435898E+01   1.548930E+01   8.883387E+00   1.170730E+01   9.115884E+00   6.249506E+00   3.824459E+01   2.021197E+01   2.951773E+01   6.781187E+01   4.107703E+01   5.271309E+01   3.960397E+01   3.679058E+01   1.276858E+02   1.459120E+02   4.544814E+01   1.486176E+01   7.298535E+00   5.096478E+01   5.800808E+01   2.754492E+01   1.326074E+01   2.328628E+01   1.496138E+01   3.310940E+01   4.249296E+01   1.865354E+01   1.604955E+01   2.389267E+01   5.161941E+01   2.800136E+01   4.575390E+01   8.893148E+01   4.997419E+01   1.215611E+01   6.185031E+01   2.047516E+01   1.404611E+01   1.847935E+01   1.053895E+01   2.139287E+01   1.821523E+01   8.313254E+01   1.249730E+02   3.226250E+01   9.816351E+01   6.525635E+01   7.097103E+01   5.555303E+01   3.238586E+01   1.834074E+01   8.197761E+01   2.964656E+01   1.947419E+02   6.124955E+01   5.619532E+01   5.510228E+01   4.529067E+01   6.231824E+01   5.278024E+01   3.600401E+01   2.858066E+01   2.830440E+01   6.709588E+01   1.614474E+01   3.738031E+01   6.038280E+01   4.977732E+01   3.330515E+01   2.461549E+01   4.180626E+01   4.604297E+01   3.551435E+01   3.254750E+01   1.636026E+01   4.464812E+01   2.185647E+02   3.594044E+02   5.763532E+02   2.187534E+02   1.603788E+02   6.604005E+01   6.632289E+01   6.191291E+01   1.011206E+02   1.011206E+02   4.969932E+01   2.464111E+01   2.464111E+01   4.214212E+01   2.611105E+01   2.611105E+01   5.404844E+00   5.404844E+00   5.404844E+00   6.791541E+00   6.791541E+00   6.791541E+00   2.388655E+01   2.388655E+01   2.388655E+01   2.388655E+01   2.388655E+01   4.298000E+01   4.298000E+01   4.298000E+01   4.298000E+01   4.298000E+01   1.646949E+01   1.646949E+01   1.646949E+01   1.646949E+01   1.646949E+01   1.646949E+01   1.646949E+01   2.413954E+01   2.413954E+01   2.413954E+01   2.413954E+01   2.413954E+01   2.413954E+01   2.413954E+01   2.413954E+01   2.413954E+01   2.413954E+01   8.720631E+00   8.720631E+00   8.720631E+00   8.720631E+00   8.720631E+00   8.720631E+00   8.720631E+00   8.720631E+00   8.720631E+00   7.333536E+00   7.333536E+00   7.333536E+00   7.333536E+00   7.333536E+00   7.333536E+00   7.333536E+00   2.935498E+01   2.935498E+01   2.935498E+01   2.935498E+01   2.935498E+01   3.351195E+01   3.351195E+01   3.351195E+01   3.351195E+01   3.813780E+01   3.813780E+01   3.813780E+01   2.981051E+01   2.981051E+01   3.084112E+01   3.084112E+01   3.263235E+01   3.263235E+01   6.063105E+01   1.240409E+02   5.099655E+01   5.099655E+01   4.279321E+01   2.412344E+01   3.605045E+01   5.726023E+01   1.484384E+02   1.304039E+02   2.061009E+02   5.043690E+01   7.631769E+01   5.621439E+01   2.564438E+01   1.923541E+01   8.416879E+01   3.858685E+01   2.797664E+01   5.322892E+01   2.990350E+01   5.239768E+01   2.691214E+01   5.688317E+01   3.354675E+01   1.181594E+02   1.025247E+02   3.628004E+01   3.069454E+01   1.070518E+01   2.669740E+01   1.951289E+01   2.646977E+01   1.293860E+02   3.995839E+01   5.380909E+01   1.401853E+02   1.117609E+02   9.235950E+01   5.348975E+01   3.454748E+01   5.259888E+01   2.527147E+01
   4.429747E+01   8.727227E+00   9.025670E+00   3.238714E+01   2.634278E+01   1.033216E+01   1.090079E+01   7.802474E+00   8.081734E+00   1.405332E+01   2.208294E+01   2.388924E+01   1.521699E+01   2.529463E+01   2.643107E+01   3.952941E+01   3.185845E+01   4.554668E+01   1.668767E+02   1.053517E+02   7.469833E+01   2.807168E+01   1.587239E+01   4.513924E+01   7.829118E+01   2.605746E+01   1.288924E+01   1.063695E+01   2.163221E+01   2.894081E+01   1.345546E+01   1.652560E+01   2.080890E+01   2.012769E+01   3.854341E+01   3.659685E+01   5.491189E+01   1.251642E+02   9.954895E+01   3.153791E+01   5.218254E+01   3.993087E+01   1.034004E+01   1.501336E+01   1.013784E+01   5.716039E+00   7.484048E+00   2.743343E+01   7.258514E+01   9.252190E+01   1.056951E+02   4.454587E+01   5.476241E+01   4.874910E+01   3.437678E+01   1.058574E+01   4.006061E+01   2.737198E+01   1.870689E+02   7.691274E+01   2.968062E+01   5.813509E+01   5.328451E+01   1.053242E+02   3.851326E+01   3.149390E+01   1.914630E+01   1.421285E+01   2.986451E+01   1.229111E+01   2.169442E+01   5.991603E+01   3.535745E+01   3.054533E+01   4.919784E+01   6.361403E+01   3.767311E+01   2.616600E+01   4.382592E+01   3.426856E+01   4.594826E+01   1.688783E+02   1.332118E+02   3.014742E+02   2.251380E+02   1.548149E+02   1.055048E+02   5.459509E+01   5.093343E+01   4.579744E+01   4.579744E+01   7.464112E+01   2.594815E+01   2.594815E+01   6.508384E+01   7.958705E+01   7.958705E+01   1.395234E+01   1.395234E+01   1.395234E+01   1.761756E+01   1.761756E+01   1.761756E+01   3.301918E+01   3.301918E+01   3.301918E+01   3.301918E+01   3.301918E+01   2.407628E+01   2.407628E+01   2.407628E+01   2.407628E+01   2.407628E+01   1.356443E+01   1.356443E+01   1.356443E+01   1.356443E+01   1.356443E+01   1.356443E+01   1.356443E+01   3.103113E+01   3.103113E+01   3.103113E+01   3.103113E+01   3.103113E+01   3.103113E+01   3.103113E+01   3.103113E+01   3.103113E+01   3.103113E+01   2.271423E+01   2.271423E+01   2.271423E+01   2.271423E+01   2.271423E+01   2.271423E+01   2.271423E+01   2.271423E+01   2.271423E+01   2.135839E+01   2.135839E+01   2.135839E+01   2.135839E+01   2.135839E+01   2.135839E+01   2.135839E+01   3.040919E+01   3.040919E+01   3.040919E+01   3.040919E+01   3.040919E+01   1.836324E+01   1.836324E+01   1.836324E+01   1.836324E+01   2.065521E+01   2.065521E+01   2.065521E+01   2.834478E+01   2.834478E+01   5.397095E+01   5.397095E+01   3.483630E+01   3.483630E+01   5.920819E+01   6.463716E+01   5.633018E+01   5.633018E+01   3.983020E+01   3.138174E+01   5.562646E+01   7.829988E+01   1.676261E+02   1.317667E+02   1.245031E+02   6.906144E+01   5.492501E+01   7.596909E+01   3.502968E+01   3.253399E+01   4.535067E+01   3.557919E+01   3.447857E+01   3.198276E+01   4.322707E+01   9.772707E+01   3.354282E+01   8.445460E+01   5.104898E+01   9.187964E+01   9.571408E+01   4.437046E+01   1.351591E+01   1.015496E+01   1.403549E+01   2.493294E+01   6.971812E+01   6.411165E+01   2.416751E+01   7.777037E+01   6.747703E+01   7.538905E+01   7.553161E+01   1.548923E+02   8.325069E+01   2.517574E+01   2.535034E+01
   3.249820E+01   2.148341E+01   3.679742E+01   4.016511E+01   1.545783E+01   1.064913E+01   6.053393E+00   5.358244E+00   5.210227E+00   2.514569E+01   1.583871E+01   2.079585E+01   4.063758E+01   4.613574E+01   2.835703E+01   3.703088E+01   2.872177E+01   6.347375E+01   1.408699E+02   4.108565E+01   1.294225E+02   3.573859E+01   1.271891E+01   2.981784E+01   5.398190E+01   2.059901E+01   9.296233E+00   7.115805E+00   1.732105E+01   2.100954E+01   2.629135E+01   1.971109E+01   3.608882E+01   5.590532E+01   6.126608E+01   4.899774E+01   4.079415E+01   7.073909E+01   9.065787E+01   5.658065E+01   3.702429E+01   4.655759E+01   1.490812E+01   1.100270E+01   1.041088E+01   8.317372E+00   7.215572E+00   3.042324E+01   3.605312E+01   4.360782E+01   8.571716E+01   3.493109E+01   6.746429E+01   1.993391E+01   1.340122E+01   1.657935E+01   2.022264E+01   4.890273E+01   8.965672E+01   3.148147E+01   3.186169E+01   1.154555E+02   8.279662E+01   8.702951E+01   3.877619E+01   2.660391E+01   2.171472E+01   6.394561E+00   3.156687E+01   9.788372E+00   1.298631E+01   3.403123E+01   2.703562E+01   1.436811E+01   5.790268E+01   4.219922E+01   2.892288E+01   7.965325E+00   5.928216E+01   6.382665E+01   3.157401E+01   9.545038E+01   1.365966E+02   6.728045E+01   1.947981E+02   1.677072E+02   4.298539E+01   5.675837E+01   5.468036E+01   8.655967E+01   8.655967E+01   3.296883E+01   4.399913E+01   4.399913E+01   4.194611E+01   1.056046E+02   1.056046E+02   4.429338E+01   4.429338E+01   4.429338E+01   4.244160E+01   4.244160E+01   4.244160E+01   4.165982E+01   4.165982E+01   4.165982E+01   4.165982E+01   4.165982E+01   4.012501E+01   4.012501E+01   4.012501E+01   4.012501E+01   4.012501E+01   1.845198E+01   1.845198E+01   1.845198E+01   1.845198E+01   1.845198E+01   1.845198E+01   1.845198E+01   2.254611E+01   2.254611E+01   2.254611E+01   2.254611E+01   2.254611E+01   2.254611E+01   2.254611E+01   2.254611E+01   2.254611E+01   2.254611E+01   2.364536E+01   2.364536E+01   2.364536E+01   2.364536E+01   2.364536E+01   2.364536E+01   2.364536E+01   2.364536E+01   2.364536E+01   4.134703E+01   4.134703E+01   4.134703E+01   4.134703E+01   4.134703E+01   4.134703E+01   4.134703E+01   2.514196E+01   2.514196E+01   2.514196E+01   2.514196E+01   2.514196E+01   1.828691E+01   1.828691E+01   1.828691E+01   1.828691E+01   3.099183E+01   3.099183E+01   3.099183E+01   4.992364E+01   4.992364E+01   3.676783E+01   3.676783E+01   3.498484E+01   3.498484E+01   5.868622E+01   3.633500E+01   2.111135E+01   2.111135E+01   3.223891E+01   3.111931E+01   6.343561E+01   5.667645E+01   5.433068E+01   9.102392E+01   1.168100E+02   6.755519E+01   3.338640E+01   3.534879E+01   4.580492E+01   2.032603E+01   3.860972E+01   3.793411E+01   6.350582E+01   2.122015E+01   6.240358E+01   8.385483E+01   7.200372E+01   5.591187E+01   4.424569E+01   7.443785E+01   3.356539E+01   1.234508E+01   1.218897E+01   1.847136E+01   1.887837E+01   1.506713E+01   3.462086E+01   3.985885E+01   2.526874E+01   4.419254E+01   1.388670E+01   3.969264E+01   5.301053E+01   1.416536E+02   8.036805E+01   4.333038E+01   3.622540E+01
   1.517506E+01   2.241389E+01   3.465854E+01   3.130823E+01   4.355604E+01   1.408814E+01   6.696718E+00   8.833178E+00   3.977487E+01   5.472025E+01   1.565504E+01   2.001641E+01   2.941096E+01   2.906665E+01   2.183011E+01   4.564633E+01   2.838989E+01   1.511707E+02   7.493472E+01   4.061458E+01   9.679285E+01   2.147584E+01   1.700827E+01   2.821397E+01   3.849823E+01   2.693020E+01   9.738312E+00   1.022072E+01   9.546132E+00   2.010480E+01   2.163548E+01   1.142405E+01   8.332819E+01   6.431089E+01   1.228089E+02   3.190899E+01   2.912126E+01   1.436982E+01   3.766125E+01   4.828896E+01   4.403663E+01   5.371877E+01   2.077252E+01   9.131186E+00   4.457106E+00   3.615778E+00   5.262588E+00   3.017512E+01   4.827158E+01   2.297870E+01   7.301763E+01   2.959652E+01   4.579010E+01   1.077037E+01   1.703729E+01   2.563356E+01   1.831402E+01   4.272690E+01   6.040612E+01   3.949632E+01   2.345716E+01   5.044006E+01   4.405735E+01   4.546091E+01   2.967157E+01   1.503872E+01   2.391504E+01   9.682962E+00   1.207606E+01   5.947847E+00   9.901276E+00   3.264801E+01   4.335266E+01   3.849523E+01   6.155692E+01   4.599080E+01   1.011147E+01   7.726241E+00   3.811182E+01   5.215079E+01   3.801447E+01   6.674123E+01   9.630234E+01   7.592450E+01   2.441627E+02   4.467739E+02   2.609185E+01   3.268357E+01   4.355409E+01   4.880058E+01   4.880058E+01   2.551130E+01   2.371448E+01   2.371448E+01   1.977942E+01   2.866674E+01   2.866674E+01   5.110440E+01   5.110440E+01   5.110440E+01   6.549383E+01   6.549383E+01   6.549383E+01   2.853203E+01   2.853203E+01   2.853203E+01   2.853203E+01   2.853203E+01   3.214694E+01   3.214694E+01   3.214694E+01   3.214694E+01   3.214694E+01   1.917345E+01   1.917345E+01   1.917345E+01   1.917345E+01   1.917345E+01   1.917345E+01   1.917345E+01   3.023517E+01   3.023517E+01   3.023517E+01   3.023517E+01   3.023517E+01   3.023517E+01   3.023517E+01   3.023517E+01   3.023517E+01   3.023517E+01   2.434543E+01   2.434543E+01   2.434543E+01   2.434543E+01   2.434543E+01   2.434543E+01   2.434543E+01   2.434543E+01   2.434543E+01   2.204167E+01   2.204167E+01   2.204167E+01   2.204167E+01   2.204167E+01   2.204167E+01   2.204167E+01   2.690459E+01   2.690459E+01   2.690459E+01   2.690459E+01   2.690459E+01   6.297385E+01   6.297385E+01   6.297385E+01   6.297385E+01   6.235727E+01   6.235727E+01   6.235727E+01   2.895433E+01   2.895433E+01   9.777033E+01   9.777033E+01   3.496663E+01   3.496663E+01   9.444024E+01   3.683997E+01   2.997841E+01   2.997841E+01   5.076952E+01   3.176279E+01   4.533007E+01   4.330339E+01   4.973030E+01   5.747279E+01   1.174681E+02   8.410796E+01   5.956085E+01   4.365187E+01   1.822257E+01   9.433542E+00   2.820859E+01   6.278413E+01   6.035722E+01   4.015740E+01   1.394755E+02   2.026369E+02   6.500494E+01   1.092824E+02   1.279766E+02   1.739537E+02   5.562644E+01   2.551342E+01   6.482012E+00   2.514064E+01   1.494595E+01   1.548588E+01   3.743822E+01   3.304340E+01   5.515512E+01   3.698814E+01   1.002368E+01   3.579177E+01   5.955362E+01   7.691193E+01   1.263506E+02   2.362771E+01   1.974985E+01
   8.194799E+00   2.119962E+01   1.583253E+01   2.160448E+01   1.519420E+01   1.522775E+01   1.250522E+01   1.640670E+01   1.009950E+02   4.903997E+01   1.476864E+01   2.117291E+01   1.535231E+01   2.045502E+01   1.267317E+01   2.997679E+01   5.515538E+01   6.805481E+01   8.860048E+01   6.345481E+01   4.719666E+01   2.878730E+01   1.270850E+01   1.043554E+01   1.408477E+01   1.345495E+01   1.243137E+01   9.582169E+00   8.484988E+00   1.778955E+01   1.249864E+01   5.317780E+00   1.234527E+02   1.888881E+02   1.048127E+02   5.240140E+01   4.803305E+01   2.447379E+01   1.841691E+01   2.239059E+01   6.858244E+01   4.309523E+01   5.237691E+01   1.586703E+01   3.582903E+00   9.469810E+00   1.475079E+01   2.225590E+01   5.846065E+01   2.763957E+01   6.189342E+01   2.893758E+01   7.893538E+00   1.034189E+01   9.697624E+00   2.629623E+01   1.151317E+01   3.285770E+01   4.035335E+01   1.594665E+01   2.617075E+01   2.717553E+01   4.063383E+01   4.164809E+01   4.019114E+01   1.584561E+01   2.978234E+01   1.574062E+01   1.357357E+01   1.366765E+01   2.135887E+01   2.050005E+01   1.989928E+01   2.633031E+01   4.035896E+01   3.201871E+01   1.606420E+01   1.805476E+01   2.284692E+01   3.408234E+01   3.996840E+01   3.413206E+01   4.039209E+01   7.436343E+01   8.898309E+01   1.509939E+02   1.692620E+01   1.390406E+01   2.949438E+01   2.606891E+01   2.606891E+01   2.567279E+01   1.745017E+01   1.745017E+01   1.359948E+01   4.304319E+01   4.304319E+01   9.323336E+01   9.323336E+01   9.323336E+01   5.609459E+01   5.609459E+01   5.609459E+01   5.377569E+01   5.377569E+01   5.377569E+01   5.377569E+01   5.377569E+01   3.669450E+01   3.669450E+01   3.669450E+01   3.669450E+01   3.669450E+01   1.408875E+01   1.408875E+01   1.408875E+01   1.408875E+01   1.408875E+01   1.408875E+01   1.408875E+01   2.301572E+01   2.301572E+01   2.301572E+01   2.301572E+01   2.301572E+01   2.301572E+01   2.301572E+01   2.301572E+01   2.301572E+01   2.301572E+01   2.950044E+01   2.950044E+01   2.950044E+01   2.950044E+01   2.950044E+01   2.950044E+01   2.950044E+01   2.950044E+01   2.950044E+01   3.536526E+01   3.536526E+01   3.536526E+01   3.536526E+01   3.536526E+01   3.536526E+01   3.536526E+01   5.854385E+01   5.854385E+01   5.854385E+01   5.854385E+01   5.854385E+01   1.250909E+02   1.250909E+02   1.250909E+02   1.250909E+02   3.540599E+01   3.540599E+01   3.540599E+01   1.205804E+01   1.205804E+01   8.825316E+01   8.825316E+01   2.107622E+01   2.107622E+01   8.605177E+01   3.208260E+01   5.600951E+01   5.600951E+01   4.564046E+01   7.320659E+01   6.016359E+01   2.688746E+01   7.101279E+01   6.673591E+01   1.135045E+02   6.159467E+01   4.271511E+01   1.429530E+01   1.452124E+01   3.184443E+00   4.325303E+01   4.904997E+01   3.167188E+01   3.646737E+01   7.325332E+01   1.599576E+02   6.792365E+01   1.046615E+02   1.202062E+02   1.218867E+02   9.686415E+01   3.605918E+01   1.292610E+01   1.248669E+01   5.300795E+00   1.052015E+01   2.577887E+01   2.009385E+01   6.058831E+01   4.518095E+01   2.112180E+01   9.250588E+00   4.512727E+01   6.807259E+01   7.612303E+01   1.172065E+01   1.365485E+01