# LPF package for  MODFLOW-2005, generated by Flopy.
        53    -1E+30         0  
         1
         0
   0.000000E+00
         0
         0
INTERNAL               1 (207E15.6) -1 #hk layer 1                    
   2.293954E+01   1.233977E+01   8.789931E+00   5.853965E+01   7.981065E+01   3.581784E+01   1.007566E+02   8.890303E+01   5.810075E+01   5.711102E+01   1.172636E+02   5.779773E+01   7.834860E+01   3.669550E+01   2.829869E+01   3.775996E+01   5.627766E+01   8.190072E+01   6.019960E+01   7.205232E+01   6.182553E+01   1.705515E+01   1.186487E+01   1.305317E+01   2.870400E+01   7.214357E+01   7.602668E+01   5.557013E+01   4.856473E+01   2.938019E+01   3.423786E+01   2.529083E+01   6.586240E+01   1.037633E+02   4.434334E+01   1.426746E+02   6.507017E+01   1.396978E+02   1.038919E+02   2.109422E+02   3.779286E+02   2.301519E+01   4.298005E+01   1.228939E+01   4.562112E+00   3.368953E+01   9.313235E+01   1.441330E+02   7.756334E+01   8.115083E+01   4.646890E+01   5.093270E+01   4.449080E+01   3.785813E+01   1.016124E+02   5.962931E+01   3.829498E+01   3.170070E+01   2.449760E+01   4.711696E+00   5.418380E+00   1.163915E+01   8.622957E+00   1.102913E+01   3.544239E+01   8.061628E+01   7.113056E+01   3.427195E+02   1.143554E+02   2.558092E+02   3.029929E+02   1.121178E+02   6.012997E+01   9.175202E+01   1.011497E+02   8.103985E+01   9.043006E+01   2.863284E+01   6.599101E+01   1.962767E+01   4.668392E+01   4.800149E+01   4.816710E+01   1.293620E+02   8.342945E+01   5.437572E+01   1.092683E+02   1.350078E+02   5.982900E+01   2.848530E+01   2.848530E+01   4.208554E+01   3.419014E+01   3.419014E+01   4.001406E+01   3.577532E+01   3.577532E+01   3.382715E+01   3.382715E+01   3.382715E+01   8.907465E+01   8.907465E+01   8.907465E+01   4.713763E+01   4.713763E+01   4.713763E+01   4.713763E+01   4.713763E+01   4.506425E+01   4.506425E+01   4.506425E+01   4.506425E+01   4.506425E+01   3.468328E+01   3.468328E+01   3.468328E+01   3.468328E+01   3.468328E+01   3.468328E+01   3.468328E+01   4.347593E+01   4.347593E+01   4.347593E+01   4.347593E+01   4.347593E+01   4.347593E+01   4.347593E+01   4.347593E+01   4.347593E+01   4.347593E+01   2.057538E+01   2.057538E+01   2.057538E+01   2.057538E+01   2.057538E+01   2.057538E+01   2.057538E+01   2.057538E+01   2.057538E+01   5.944320E+01   5.944320E+01   5.944320E+01   5.944320E+01   5.944320E+01   5.944320E+01   5.944320E+01   4.423606E+01   4.423606E+01   4.423606E+01   4.423606E+01   4.423606E+01   4.057701E+01   4.057701E+01   4.057701E+01   4.057701E+01   3.462014E+01   3.462014E+01   3.462014E+01   7.645158E+01   7.645158E+01   3.448491E+02   3.448491E+02   4.162589E+01   4.162589E+01   3.743240E+01   3.369450E+01   1.075919E+01   1.075919E+01   1.013605E+01   1.106860E+01   2.188413E+01   1.892400E+01   1.944178E+01   2.829942E+01   2.400524E+01   2.179360E+01   7.318026E+01   4.434524E+01   4.861566E+01   6.858027E+01   5.125075E+01   1.849468E+01   2.519600E+01   4.447099E+01   7.525255E+01   1.182679E+02   3.242016E+02   4.088223E+01   4.493552E+01   1.019773E+02   4.134582E+01   4.519418E+01   7.758040E+01   6.190736E+01   1.511116E+02   4.433211E+01   1.853130E+02   1.047740E+02   5.720588E+01   3.654724E+01   6.118248E+01   2.014891E+02   3.686208E+02   7.709897E+01   6.528547E+01   4.124465E+01   2.588748E+01
   2.578316E+01   2.547582E+01   1.116060E+01   1.166745E+02   1.335442E+02   5.849457E+01   1.505204E+02   9.540916E+01   6.272881E+01   8.820035E+01   1.093934E+02   2.721385E+01   3.768961E+01   3.564865E+01   2.009188E+01   2.398674E+01   3.414486E+01   1.073560E+02   6.199067E+01   5.089805E+01   2.147625E+01   8.965764E+00   9.133348E+00   3.178498E+01   4.345134E+01   9.078470E+01   1.007812E+02   9.512223E+01   2.276130E+01   2.372426E+01   5.351524E+01   6.208828E+01   8.233581E+01   8.558780E+01   4.648771E+01   1.150648E+02   5.390878E+01   1.322104E+02   8.579581E+01   2.195122E+02   2.186568E+02   6.252086E+01   5.308108E+01   1.672788E+01   2.125557E+01   2.318081E+01   5.810664E+01   6.395882E+01   5.066181E+01   7.493771E+01   5.175608E+01   2.772198E+01   3.017572E+01   3.477395E+01   1.071194E+02   6.508744E+01   4.374224E+01   6.068676E+01   1.110966E+01   7.566022E+00   7.938261E+00   9.536932E+00   5.508628E+00   8.327085E+00   1.642973E+01   6.117308E+01   8.854673E+01   2.067689E+02   1.345612E+02   2.789445E+02   2.384063E+02   5.637258E+01   3.219776E+01   1.050461E+02   1.336322E+02   1.174682E+02   6.859204E+01   4.089101E+01   2.533360E+01   2.387290E+01   3.306775E+01   5.987741E+01   6.233683E+01   1.375775E+02   1.173736E+02   6.353156E+01   6.278377E+01   8.820425E+01   1.483938E+02   4.560778E+01   4.560778E+01   2.833430E+01   5.748738E+01   5.748738E+01   3.014330E+01   4.184115E+01   4.184115E+01   3.828731E+01   3.828731E+01   3.828731E+01   1.020041E+02   1.020041E+02   1.020041E+02   1.065248E+02   1.065248E+02   1.065248E+02   1.065248E+02   1.065248E+02   5.354049E+01   5.354049E+01   5.354049E+01   5.354049E+01   5.354049E+01   3.062445E+01   3.062445E+01   3.062445E+01   3.062445E+01   3.062445E+01   3.062445E+01   3.062445E+01   2.454298E+01   2.454298E+01   2.454298E+01   2.454298E+01   2.454298E+01   2.454298E+01   2.454298E+01   2.454298E+01   2.454298E+01   2.454298E+01   2.579395E+01   2.579395E+01   2.579395E+01   2.579395E+01   2.579395E+01   2.579395E+01   2.579395E+01   2.579395E+01   2.579395E+01   4.575460E+01   4.575460E+01   4.575460E+01   4.575460E+01   4.575460E+01   4.575460E+01   4.575460E+01   5.368489E+01   5.368489E+01   5.368489E+01   5.368489E+01   5.368489E+01   6.954514E+01   6.954514E+01   6.954514E+01   6.954514E+01   6.428763E+01   6.428763E+01   6.428763E+01   6.000479E+01   6.000479E+01   1.288279E+02   1.288279E+02   7.935233E+01   7.935233E+01   5.728581E+01   2.232656E+01   1.534710E+01   1.534710E+01   1.428202E+01   1.184809E+01   2.128598E+01   1.141733E+01   2.526596E+01   1.548032E+01   1.106738E+01   1.541830E+01   6.836466E+01   5.561458E+01   6.120562E+01   4.927226E+01   9.319308E+01   1.125296E+01   3.232537E+01   5.119508E+01   5.858867E+01   1.833876E+02   2.874120E+02   9.457762E+01   3.974931E+01   9.516753E+01   1.536283E+01   4.415607E+01   5.013746E+01   1.553685E+02   2.237471E+02   1.270511E+02   3.423875E+02   8.182507E+01   6.590488E+01   2.039591E+01   6.584201E+01   1.180070E+02   1.774339E+02   1.590549E+02   1.379736E+02   3.133369E+01   2.805275E+01
   3.710070E+01   2.652677E+01   2.452940E+01   1.494817E+02   9.046026E+01   1.144598E+02   1.089401E+02   1.349346E+02   6.707710E+01   6.914657E+01   1.343647E+02   4.018845E+01   5.684811E+01   2.556756E+01   3.250809E+01   1.693193E+01   5.188541E+01   4.477015E+01   7.383420E+01   4.382508E+01   1.683694E+01   7.375809E+00   1.076935E+01   1.545284E+01   5.367180E+01   4.793954E+01   1.069405E+02   8.743464E+01   2.701070E+01   1.818344E+01   3.905173E+01   1.477539E+02   3.729794E+01   4.505182E+01   4.752704E+01   5.984374E+01   5.868041E+01   1.757815E+02   1.297099E+02   8.167194E+01   9.990224E+01   4.462329E+01   3.881975E+01   2.025988E+01   3.665345E+01   4.435069E+01   4.001894E+01   6.365090E+01   8.132858E+01   7.063229E+01   2.563996E+01   4.460991E+01   2.248145E+01   1.184127E+02   1.440447E+02   4.671653E+01   6.817383E+01   2.887053E+01   1.391177E+01   8.012637E+00   1.349429E+01   1.140562E+01   1.051397E+01   1.237126E+01   1.268327E+01   4.329718E+01   9.317094E+01   1.280680E+02   1.858676E+02   3.844371E+02   8.677080E+01   4.215537E+01   7.902251E+01   6.524687E+01   5.342616E+01   8.792866E+01   7.661813E+01   3.724322E+01   3.212083E+01   2.931874E+01   3.759301E+01   3.870995E+01   7.051547E+01   2.813070E+02   2.630908E+02   7.688262E+01   2.421221E+01   3.423269E+01   7.481617E+01   5.380385E+01   5.380385E+01   2.426187E+01   7.572305E+01   7.572305E+01   7.667237E+01   6.747249E+01   6.747249E+01   6.552033E+01   6.552033E+01   6.552033E+01   1.645674E+02   1.645674E+02   1.645674E+02   5.521494E+01   5.521494E+01   5.521494E+01   5.521494E+01   5.521494E+01   4.343609E+01   4.343609E+01   4.343609E+01   4.343609E+01   4.343609E+01   4.772184E+01   4.772184E+01   4.772184E+01   4.772184E+01   4.772184E+01   4.772184E+01   4.772184E+01   7.821169E+01   7.821169E+01   7.821169E+01   7.821169E+01   7.821169E+01   7.821169E+01   7.821169E+01   7.821169E+01   7.821169E+01   7.821169E+01   6.606390E+01   6.606390E+01   6.606390E+01   6.606390E+01   6.606390E+01   6.606390E+01   6.606390E+01   6.606390E+01   6.606390E+01   8.629408E+01   8.629408E+01   8.629408E+01   8.629408E+01   8.629408E+01   8.629408E+01   8.629408E+01   3.725657E+01   3.725657E+01   3.725657E+01   3.725657E+01   3.725657E+01   8.271876E+01   8.271876E+01   8.271876E+01   8.271876E+01   9.264997E+01   9.264997E+01   9.264997E+01   4.130591E+01   4.130591E+01   3.500053E+01   3.500053E+01   6.069205E+01   6.069205E+01   4.795176E+01   5.172388E+01   1.190943E+01   1.190943E+01   1.325982E+01   8.519951E+00   2.217315E+01   3.040674E+01   5.538515E+01   2.680932E+01   1.086993E+01   1.222405E+01   6.470204E+01   3.595039E+01   4.871465E+01   6.093654E+01   7.851180E+01   2.872534E+01   3.096549E+01   4.520496E+01   7.977168E+01   1.688110E+02   1.612027E+02   1.593419E+02   4.158252E+01   6.244228E+01   1.728577E+01   2.398829E+01   5.049835E+01   7.542694E+01   1.435792E+02   9.702439E+01   1.838780E+02   9.084439E+01   4.124329E+01   6.611858E+01   3.065323E+01   8.530183E+01   7.483297E+01   1.501212E+02   7.737363E+01   5.054912E+01   1.127796E+01
   4.765441E+01   5.634734E+01   5.268132E+01   1.386405E+02   1.115631E+02   9.688560E+01   1.177042E+02   9.381341E+01   5.028733E+01   5.427104E+01   7.287811E+01   8.281161E+01   6.718669E+01   2.801289E+01   4.845235E+01   2.571168E+01   6.887264E+01   3.482868E+01   3.702237E+01   6.869452E+01   2.001721E+01   9.308505E+00   1.364977E+01   2.482719E+01   2.695199E+01   4.154822E+01   6.894390E+01   1.114717E+02   2.653651E+01   1.701042E+01   1.242410E+01   9.512287E+01   3.093659E+01   8.834467E+01   5.916298E+01   8.077645E+01   3.520668E+01   6.561430E+01   7.021078E+01   7.968530E+01   1.263851E+02   3.015673E+01   2.950404E+01   1.760082E+01   8.523284E+01   3.901440E+01   3.295087E+01   3.665870E+01   6.967563E+01   5.186199E+01   2.145746E+01   4.005550E+01   2.846875E+01   4.548058E+01   4.335921E+01   3.419745E+01   1.017114E+02   4.940541E+01   1.722828E+01   1.489291E+01   2.235560E+01   9.475507E+00   6.688667E+00   7.490178E+00   2.270578E+01   6.041427E+01   1.716584E+02   2.615292E+02   1.207715E+02   2.503492E+02   9.764442E+01   8.009784E+01   4.684113E+01   3.509783E+01   4.220746E+01   1.064757E+02   5.765283E+01   3.380187E+01   5.024818E+01   2.272667E+01   3.526749E+01   3.255687E+01   4.461229E+01   2.927974E+02   6.862053E+02   2.338634E+02   2.508235E+01   2.687254E+01   5.235033E+01   6.909736E+01   6.909736E+01   3.067877E+01   5.011486E+01   5.011486E+01   1.142963E+02   9.519151E+01   9.519151E+01   6.107251E+01   6.107251E+01   6.107251E+01   1.403364E+02   1.403364E+02   1.403364E+02   1.480492E+02   1.480492E+02   1.480492E+02   1.480492E+02   1.480492E+02   7.907024E+01   7.907024E+01   7.907024E+01   7.907024E+01   7.907024E+01   9.447083E+01   9.447083E+01   9.447083E+01   9.447083E+01   9.447083E+01   9.447083E+01   9.447083E+01   8.926340E+01   8.926340E+01   8.926340E+01   8.926340E+01   8.926340E+01   8.926340E+01   8.926340E+01   8.926340E+01   8.926340E+01   8.926340E+01   6.265599E+01   6.265599E+01   6.265599E+01   6.265599E+01   6.265599E+01   6.265599E+01   6.265599E+01   6.265599E+01   6.265599E+01   8.072216E+01   8.072216E+01   8.072216E+01   8.072216E+01   8.072216E+01   8.072216E+01   8.072216E+01   6.160049E+01   6.160049E+01   6.160049E+01   6.160049E+01   6.160049E+01   6.418768E+01   6.418768E+01   6.418768E+01   6.418768E+01   4.805116E+01   4.805116E+01   4.805116E+01   3.246156E+01   3.246156E+01   1.786429E+01   1.786429E+01   9.342323E+01   9.342323E+01   6.425796E+01   1.155049E+02   1.387204E+01   1.387204E+01   9.278754E+00   1.927741E+01   3.595837E+01   2.020635E+01   2.581418E+01   1.908559E+01   1.435310E+01   1.123393E+01   2.070520E+01   1.749841E+01   6.495982E+01   7.375879E+01   1.598519E+02   8.558465E+01   2.415780E+01   6.612640E+01   7.610694E+01   1.341431E+02   1.509211E+02   6.810015E+01   1.926488E+01   3.359605E+01   1.930638E+01   8.696771E+01   2.319062E+01   5.202612E+01   2.309760E+01   3.009870E+01   7.447610E+01   4.102588E+01   2.994110E+01   5.036163E+01   2.290034E+01   4.854725E+01   7.041513E+01   1.159627E+02   8.716563E+01   2.626694E+01   9.991514E+00
   3.393101E+01   6.334865E+01   1.368687E+02   1.540681E+02   1.411234E+02   6.413185E+01   2.169239E+02   2.050964E+02   1.150917E+02   3.982751E+01   7.521567E+01   4.478490E+01   2.821892E+01   3.987768E+01   8.957420E+01   3.123418E+01   4.826287E+01   2.452632E+01   2.135420E+01   3.170410E+01   2.331808E+01   2.109827E+01   1.783447E+01   5.370703E+01   5.858208E+01   3.537859E+01   7.803616E+01   3.920692E+01   4.599651E+01   3.153423E+01   1.215258E+01   6.893347E+01   2.935163E+01   4.473740E+01   5.741603E+01   1.003732E+02   5.418323E+01   1.252821E+02   4.961151E+01   2.570374E+02   7.515096E+01   2.407592E+01   3.193423E+01   5.490750E+01   5.312655E+01   5.209262E+01   1.564594E+01   4.439240E+01   4.050140E+01   3.014004E+01   2.372251E+01   4.225542E+01   2.702782E+01   1.611699E+01   1.994829E+01   4.253515E+01   6.947012E+01   6.446690E+01   1.825372E+01   2.350332E+01   2.532643E+01   1.041115E+01   1.166364E+01   1.289958E+01   2.883542E+01   1.432271E+02   3.101111E+02   3.346399E+02   1.916374E+02   2.311507E+02   8.521060E+01   8.219966E+01   7.403653E+01   3.071084E+01   2.467617E+01   9.791478E+01   4.551315E+01   2.277742E+01   6.375528E+01   3.188900E+01   3.303970E+01   4.466275E+01   4.563078E+01   2.070955E+02   5.587744E+02   3.105845E+02   2.284583E+01   8.222631E+00   1.177939E+01   2.650907E+01   2.650907E+01   2.638175E+01   3.713614E+01   3.713614E+01   1.589071E+02   1.090966E+02   1.090966E+02   1.797774E+02   1.797774E+02   1.797774E+02   6.867696E+01   6.867696E+01   6.867696E+01   7.359131E+01   7.359131E+01   7.359131E+01   7.359131E+01   7.359131E+01   9.738615E+01   9.738615E+01   9.738615E+01   9.738615E+01   9.738615E+01   9.773114E+01   9.773114E+01   9.773114E+01   9.773114E+01   9.773114E+01   9.773114E+01   9.773114E+01   3.921804E+01   3.921804E+01   3.921804E+01   3.921804E+01   3.921804E+01   3.921804E+01   3.921804E+01   3.921804E+01   3.921804E+01   3.921804E+01   4.439568E+01   4.439568E+01   4.439568E+01   4.439568E+01   4.439568E+01   4.439568E+01   4.439568E+01   4.439568E+01   4.439568E+01   3.442617E+01   3.442617E+01   3.442617E+01   3.442617E+01   3.442617E+01   3.442617E+01   3.442617E+01   6.616074E+01   6.616074E+01   6.616074E+01   6.616074E+01   6.616074E+01   4.844341E+01   4.844341E+01   4.844341E+01   4.844341E+01   4.314363E+01   4.314363E+01   4.314363E+01   1.358896E+01   1.358896E+01   1.695542E+01   1.695542E+01   5.011861E+01   5.011861E+01   1.074267E+02   1.310775E+02   4.238631E+01   4.238631E+01   3.060932E+01   2.679008E+01   2.858943E+01   7.048595E+01   4.924813E+01   2.921041E+01   1.564650E+01   1.536553E+01   2.721317E+01   3.611106E+01   1.174859E+02   5.758515E+01   1.186729E+02   5.911491E+01   2.147535E+01   3.817108E+01   7.390334E+01   9.804494E+01   8.632173E+01   1.917905E+01   3.645098E+01   7.303504E+01   2.819995E+01   6.931470E+01   4.604942E+01   4.813914E+01   3.346479E+01   3.653794E+01   4.206650E+01   8.869077E+01   4.477492E+01   5.628024E+01   3.813905E+01   6.341549E+01   8.596197E+01   4.738408E+01   4.885363E+01   2.603459E+01   8.459524E+00
   2.836143E+01   4.658387E+01   1.266162E+02   9.139555E+01   1.943408E+02   7.027304E+01   2.503333E+02   3.753345E+02   1.064067E+02   3.958264E+01   4.044841E+01   5.086726E+01   4.182010E+01   3.850450E+01   5.430342E+01   2.296197E+01   5.097575E+01   2.308199E+01   2.871532E+01   3.314756E+01   3.775302E+01   2.212239E+01   3.671706E+01   2.576527E+01   6.796105E+01   3.132447E+01   2.306168E+01   2.854881E+01   1.172815E+01   3.574388E+01   3.251188E+01   1.140834E+02   4.654982E+01   2.675877E+01   3.986123E+01   4.336079E+02   8.524401E+01   7.333436E+01   1.685665E+02   1.254861E+02   4.325670E+01   3.382761E+01   6.646828E+01   9.810232E+01   6.984247E+01   4.615072E+01   3.618433E+01   6.847755E+01   5.971943E+01   1.549492E+01   3.291484E+01   4.342387E+01   3.223032E+01   2.671056E+01   9.695333E+00   1.677287E+01   6.348129E+01   4.973483E+01   3.537324E+01   2.637406E+01   2.585607E+01   3.724903E+01   3.561617E+01   2.561569E+01   2.865206E+01   1.543223E+02   2.494489E+02   3.989293E+02   3.453696E+02   2.099610E+02   8.363525E+01   9.276084E+01   8.555444E+01   6.375013E+01   4.346462E+01   5.462993E+01   7.362317E+01   8.493725E+01   8.828694E+01   3.924405E+01   3.622898E+01   2.656615E+01   5.448192E+01   1.313323E+02   6.552797E+02   3.317037E+02   2.914020E+01   8.315524E+00   8.119543E+00   7.047720E+00   7.047720E+00   1.285501E+01   6.509339E+01   6.509339E+01   2.505480E+02   9.904097E+01   9.904097E+01   1.451604E+02   1.451604E+02   1.451604E+02   4.910698E+01   4.910698E+01   4.910698E+01   8.722713E+01   8.722713E+01   8.722713E+01   8.722713E+01   8.722713E+01   9.715701E+01   9.715701E+01   9.715701E+01   9.715701E+01   9.715701E+01   3.303042E+01   3.303042E+01   3.303042E+01   3.303042E+01   3.303042E+01   3.303042E+01   3.303042E+01   3.319571E+01   3.319571E+01   3.319571E+01   3.319571E+01   3.319571E+01   3.319571E+01   3.319571E+01   3.319571E+01   3.319571E+01   3.319571E+01   5.661978E+01   5.661978E+01   5.661978E+01   5.661978E+01   5.661978E+01   5.661978E+01   5.661978E+01   5.661978E+01   5.661978E+01   4.074376E+01   4.074376E+01   4.074376E+01   4.074376E+01   4.074376E+01   4.074376E+01   4.074376E+01   7.665096E+01   7.665096E+01   7.665096E+01   7.665096E+01   7.665096E+01   2.743956E+01   2.743956E+01   2.743956E+01   2.743956E+01   1.404281E+01   1.404281E+01   1.404281E+01   2.001990E+01   2.001990E+01   1.832660E+01   1.832660E+01   3.614227E+01   3.614227E+01   1.313951E+02   7.224911E+01   1.002843E+02   1.002843E+02   5.886941E+01   1.782440E+01   3.442949E+01   1.325946E+02   1.179512E+02   6.013215E+01   3.373262E+01   2.960028E+01   1.863336E+01   3.276296E+01   7.563463E+01   8.934339E+01   1.154586E+02   5.084587E+01   2.065048E+01   3.177248E+01   6.126842E+01   3.060237E+01   7.124443E+01   5.336720E+01   8.463222E+01   5.611718E+01   4.183541E+01   4.210835E+01   2.806036E+01   1.743811E+01   2.763000E+01   3.947604E+01   2.882260E+01   4.971714E+01   7.809939E+01   2.152486E+02   7.518115E+01   8.482436E+01   3.970879E+01   3.179918E+01   3.782006E+01   1.034829E+01   1.438105E+01
   2.430042E+01   5.589822E+01   4.602650E+01   1.055273E+02   1.104020E+02   2.091268E+02   1.636723E+02   4.490658E+02   8.954880E+01   4.186696E+01   2.028217E+01   5.734622E+01   2.889731E+01   4.182525E+01   2.768455E+01   2.479507E+01   3.339108E+01   1.856925E+01   3.236624E+01   6.764066E+01   5.200898E+01   3.644551E+01   6.764290E+01   4.081635E+01   9.069270E+01   8.765322E+01   3.991740E+01   3.904142E+01   2.647145E+01   3.544490E+01   4.978993E+01   9.066051E+01   3.649475E+01   3.800393E+01   9.521715E+01   2.232876E+02   9.128188E+01   9.378294E+01   8.860892E+01   6.496404E+01   3.881518E+01   2.515465E+01   3.499862E+01   6.288575E+01   8.859519E+01   2.867238E+01   3.266546E+01   4.926867E+01   2.706807E+01   1.879285E+01   2.790209E+01   4.967267E+01   4.779867E+01   4.680641E+01   1.811353E+01   1.811448E+01   7.721333E+01   9.088317E+01   3.569358E+01   2.941179E+01   2.223005E+01   1.124831E+01   2.632158E+01   6.711168E+01   3.167343E+01   1.087049E+02   1.714293E+02   3.792470E+02   5.178449E+02   1.696427E+02   1.393089E+02   7.964591E+01   6.656078E+01   5.724713E+01   5.414599E+01   3.986740E+01   3.624432E+01   5.272368E+01   5.589133E+01   4.921690E+01   1.787920E+01   2.808108E+01   3.933323E+01   6.993903E+01   2.647415E+02   1.666926E+02   1.889831E+01   4.145318E+00   1.189434E+01   1.295947E+01   1.295947E+01   1.720256E+01   6.892130E+01   6.892130E+01   9.084731E+01   9.537802E+01   9.537802E+01   1.217727E+02   1.217727E+02   1.217727E+02   5.903452E+01   5.903452E+01   5.903452E+01   1.496763E+02   1.496763E+02   1.496763E+02   1.496763E+02   1.496763E+02   1.107253E+02   1.107253E+02   1.107253E+02   1.107253E+02   1.107253E+02   3.200370E+01   3.200370E+01   3.200370E+01   3.200370E+01   3.200370E+01   3.200370E+01   3.200370E+01   2.456591E+01   2.456591E+01   2.456591E+01   2.456591E+01   2.456591E+01   2.456591E+01   2.456591E+01   2.456591E+01   2.456591E+01   2.456591E+01   1.972246E+01   1.972246E+01   1.972246E+01   1.972246E+01   1.972246E+01   1.972246E+01   1.972246E+01   1.972246E+01   1.972246E+01   3.652501E+01   3.652501E+01   3.652501E+01   3.652501E+01   3.652501E+01   3.652501E+01   3.652501E+01   5.253141E+01   5.253141E+01   5.253141E+01   5.253141E+01   5.253141E+01   3.584207E+01   3.584207E+01   3.584207E+01   3.584207E+01   2.026472E+01   2.026472E+01   2.026472E+01   1.641073E+01   1.641073E+01   2.023360E+01   2.023360E+01   7.099598E+01   7.099598E+01   4.746916E+01   3.039899E+01   7.152767E+01   7.152767E+01   5.733390E+01   5.937311E+01   4.638084E+01   7.592099E+01   7.004501E+01   7.809290E+01   2.774753E+01   1.586054E+01   1.793128E+01   5.069596E+01   1.029231E+02   8.669222E+01   4.811173E+01   3.172701E+01   6.509277E+01   3.031236E+01   4.058700E+01   3.252337E+01   1.164681E+02   8.901915E+01   1.620200E+02   9.831858E+01   4.210978E+01   8.298074E+01   3.725039E+01   2.170750E+01   3.121261E+01   8.667364E+01   3.347424E+01   1.556272E+01   7.836256E+01   1.817802E+02   5.955774E+01   6.178504E+01   3.270830E+01   2.728640E+01   2.725942E+01   3.003735E+01   2.159909E+01
   2.562386E+01   2.304455E+01   3.691916E+01   1.269313E+02   8.757292E+01   1.279971E+02   1.881606E+02   1.525575E+02   7.028020E+01   2.712368E+01   3.731954E+01   6.390751E+01   4.748755E+01   3.397390E+01   1.900128E+01   4.736160E+01   4.706882E+01   1.761714E+01   2.557100E+01   6.677982E+01   3.610118E+01   1.285909E+02   1.286457E+02   3.329305E+01   1.245901E+02   5.924358E+01   6.062809E+01   4.039144E+01   3.685184E+01   9.933811E+01   1.062865E+02   5.682950E+01   6.476137E+01   3.093334E+01   7.288605E+01   1.086577E+02   7.235798E+01   8.615173E+01   9.734576E+01   3.357297E+01   2.156762E+01   1.213245E+01   1.984859E+01   5.197115E+01   6.840285E+01   2.583191E+01   4.086436E+01   4.383966E+01   2.330161E+01   2.132159E+01   7.474053E+01   2.647220E+01   3.491583E+01   8.731564E+01   3.404066E+01   8.927108E+00   2.860171E+01   3.005646E+01   2.277229E+01   4.601789E+01   4.093899E+01   1.118135E+01   6.541700E+01   4.661981E+01   4.208852E+01   8.260072E+01   1.400777E+02   2.887369E+02   5.101259E+02   1.156394E+02   2.535966E+02   9.446081E+01   4.979430E+01   7.604935E+01   4.971037E+01   2.631407E+01   2.790144E+01   4.214524E+01   5.629974E+01   3.920832E+01   3.958134E+01   1.967546E+01   2.718467E+01   1.072917E+02   1.798604E+02   1.109026E+02   4.010013E+01   7.928477E+00   1.543654E+01   1.397083E+01   1.397083E+01   1.857365E+01   5.627667E+01   5.627667E+01   6.623989E+01   4.594258E+01   4.594258E+01   8.827503E+01   8.827503E+01   8.827503E+01   7.173240E+01   7.173240E+01   7.173240E+01   5.428983E+01   5.428983E+01   5.428983E+01   5.428983E+01   5.428983E+01   8.401692E+01   8.401692E+01   8.401692E+01   8.401692E+01   8.401692E+01   2.122479E+01   2.122479E+01   2.122479E+01   2.122479E+01   2.122479E+01   2.122479E+01   2.122479E+01   9.669682E+00   9.669682E+00   9.669682E+00   9.669682E+00   9.669682E+00   9.669682E+00   9.669682E+00   9.669682E+00   9.669682E+00   9.669682E+00   1.890527E+01   1.890527E+01   1.890527E+01   1.890527E+01   1.890527E+01   1.890527E+01   1.890527E+01   1.890527E+01   1.890527E+01   4.464666E+01   4.464666E+01   4.464666E+01   4.464666E+01   4.464666E+01   4.464666E+01   4.464666E+01   1.171558E+02   1.171558E+02   1.171558E+02   1.171558E+02   1.171558E+02   3.824572E+01   3.824572E+01   3.824572E+01   3.824572E+01   1.588815E+01   1.588815E+01   1.588815E+01   2.718661E+01   2.718661E+01   1.792480E+01   1.792480E+01   6.550610E+01   6.550610E+01   5.449030E+01   4.163704E+01   2.497332E+01   2.497332E+01   5.152717E+01   4.778005E+01   3.437857E+01   1.086097E+02   3.389381E+01   3.038692E+01   4.126707E+01   2.831059E+01   3.609145E+01   1.045558E+02   8.795726E+01   4.087817E+01   3.564688E+01   2.853368E+01   4.312169E+01   1.834221E+01   2.519234E+01   2.086061E+01   7.105106E+01   1.750933E+02   1.282730E+02   1.100284E+02   6.779804E+01   9.859639E+01   6.081039E+01   3.516466E+01   2.703863E+01   1.361778E+02   3.401912E+01   3.554559E+01   1.140569E+02   1.448148E+02   6.650693E+01   2.860743E+01   1.994701E+01   2.358836E+01   1.672999E+01   2.052320E+01   4.495978E+01
   2.747919E+01   4.353949E+01   5.093970E+01   1.282659E+02   1.099072E+02   1.297777E+02   1.408355E+02   9.332880E+01   4.367168E+01   2.404566E+01   3.526315E+01   3.348302E+01   3.233489E+01   2.415693E+01   1.518999E+01   3.352287E+01   2.793404E+01   1.191883E+01   4.588809E+01   4.020267E+01   1.273284E+02   1.087662E+02   9.657079E+01   4.126844E+01   9.201507E+01   4.702793E+01   9.974612E+01   3.279606E+01   4.232170E+01   1.375789E+02   1.924442E+02   3.020622E+01   1.227987E+02   6.235150E+01   1.055373E+02   1.613160E+02   2.436782E+02   1.126020E+02   5.301106E+01   2.041402E+01   1.543495E+01   1.481405E+01   4.792607E+01   9.079709E+01   2.348725E+01   1.823190E+01   3.828241E+01   6.079985E+01   2.689945E+01   2.809114E+01   2.807057E+01   2.638873E+01   6.761835E+01   5.191271E+01   1.703015E+01   2.775456E+01   4.050790E+01   2.405238E+01   1.931392E+01   2.798407E+01   3.076832E+01   2.543805E+01   5.427395E+01   1.422979E+01   2.765719E+01   5.526499E+01   1.309995E+02   3.411236E+02   2.414313E+02   1.436377E+02   2.187943E+02   5.890274E+01   4.520116E+01   5.812289E+01   6.809664E+01   2.244900E+01   2.374340E+01   4.975386E+01   4.724246E+01   2.976523E+01   4.393008E+01   3.216756E+01   5.928456E+01   7.127911E+01   1.937508E+02   1.176705E+02   1.755817E+02   2.225025E+01   1.570371E+01   2.053570E+01   2.053570E+01   3.959734E+01   5.161827E+01   5.161827E+01   5.694358E+01   6.669990E+01   6.669990E+01   3.910624E+01   3.910624E+01   3.910624E+01   9.795479E+01   9.795479E+01   9.795479E+01   7.077960E+01   7.077960E+01   7.077960E+01   7.077960E+01   7.077960E+01   3.154758E+01   3.154758E+01   3.154758E+01   3.154758E+01   3.154758E+01   2.145455E+01   2.145455E+01   2.145455E+01   2.145455E+01   2.145455E+01   2.145455E+01   2.145455E+01   8.748953E+00   8.748953E+00   8.748953E+00   8.748953E+00   8.748953E+00   8.748953E+00   8.748953E+00   8.748953E+00   8.748953E+00   8.748953E+00   2.418571E+01   2.418571E+01   2.418571E+01   2.418571E+01   2.418571E+01   2.418571E+01   2.418571E+01   2.418571E+01   2.418571E+01   6.488027E+01   6.488027E+01   6.488027E+01   6.488027E+01   6.488027E+01   6.488027E+01   6.488027E+01   9.463426E+01   9.463426E+01   9.463426E+01   9.463426E+01   9.463426E+01   3.082640E+01   3.082640E+01   3.082640E+01   3.082640E+01   2.823432E+01   2.823432E+01   2.823432E+01   4.306535E+01   4.306535E+01   2.258758E+01   2.258758E+01   3.650718E+01   3.650718E+01   9.813941E+01   7.552036E+01   2.105120E+01   2.105120E+01   4.685146E+01   3.395965E+01   6.437534E+01   8.042928E+01   4.041282E+01   2.238785E+01   2.186791E+01   2.582444E+01   3.170515E+01   5.079546E+01   8.072950E+01   2.526575E+01   3.168189E+01   2.314513E+01   3.230243E+01   2.833409E+01   5.201329E+01   2.537692E+01   1.072553E+02   1.078182E+02   1.178771E+02   8.004347E+01   8.214896E+01   7.908810E+01   5.145331E+01   1.860607E+01   3.445725E+01   1.613416E+02   8.879906E+01   6.795410E+01   1.168529E+02   1.255586E+02   5.283253E+01   1.400056E+01   2.038684E+01   1.182809E+01   1.338831E+01   1.437589E+01   5.659172E+01