# LPF package for  MODFLOW-2005, generated by Flopy.
        53    -1E+30         0  
         1
         0
   0.000000E+00
         0
         0
INTERNAL               1 (207E15.6) -1 #hk layer 1                    
   2.988875E+01   5.510528E+01   1.463918E+02   5.631809E+01   6.840623E+01   6.370594E+01   9.023603E+01   1.210543E+02   1.258764E+02   1.762177E+02   6.740857E+01   3.068410E+01   5.861971E+01   1.061273E+02   5.957307E+01   3.490306E+01   2.813485E+01   6.172211E+01   4.483656E+01   2.813772E+01   1.808248E+01   3.225667E+01   1.367777E+01   2.969390E+01   1.263124E+01   1.320551E+01   1.786081E+01   1.044031E+01   2.062480E+01   3.006013E+01   1.260730E+02   1.588452E+02   2.657957E+02   6.631355E+01   3.288314E+01   9.136597E+01   1.693947E+02   1.568165E+02   1.736805E+02   2.848104E+02   8.984612E+01   1.777316E+02   1.849971E+02   1.273626E+02   1.391492E+02   6.846352E+01   3.127226E+01   4.566536E+01   6.093124E+01   1.416787E+02   2.970789E+02   1.161231E+02   3.339217E+01   6.048024E+01   6.446921E+01   1.136674E+02   2.132289E+02   3.310117E+01   6.045301E+01   4.645625E+01   6.938447E+01   6.055667E+01   4.450283E+01   2.962328E+01   4.644924E+01   3.516039E+01   7.797462E+01   7.409250E+01   2.028345E+02   4.303615E+02   2.627184E+02   1.365348E+02   1.221850E+02   3.901797E+01   6.746382E+01   1.843058E+02   1.281587E+02   3.274915E+02   1.984229E+02   1.415780E+02   1.019027E+02   2.494436E+01   2.587957E+01   1.890777E+01   1.113078E+02   1.980753E+02   2.956926E+02   3.169606E+02   3.992573E+02   5.553283E+01   5.553283E+01   3.543569E+01   3.178869E+01   3.178869E+01   8.676100E+01   2.328774E+01   2.328774E+01   2.474072E+01   2.474072E+01   2.474072E+01   1.126625E+02   1.126625E+02   1.126625E+02   2.424113E+02   2.424113E+02   2.424113E+02   2.424113E+02   2.424113E+02   1.480245E+02   1.480245E+02   1.480245E+02   1.480245E+02   1.480245E+02   1.009113E+02   1.009113E+02   1.009113E+02   1.009113E+02   1.009113E+02   1.009113E+02   1.009113E+02   5.724135E+01   5.724135E+01   5.724135E+01   5.724135E+01   5.724135E+01   5.724135E+01   5.724135E+01   5.724135E+01   5.724135E+01   5.724135E+01   2.354111E+02   2.354111E+02   2.354111E+02   2.354111E+02   2.354111E+02   2.354111E+02   2.354111E+02   2.354111E+02   2.354111E+02   1.717843E+02   1.717843E+02   1.717843E+02   1.717843E+02   1.717843E+02   1.717843E+02   1.717843E+02   1.169057E+02   1.169057E+02   1.169057E+02   1.169057E+02   1.169057E+02   9.150512E+01   9.150512E+01   9.150512E+01   9.150512E+01   8.011432E+01   8.011432E+01   8.011432E+01   4.170297E+01   4.170297E+01   6.496368E+01   6.496368E+01   2.707252E+01   2.707252E+01   3.196898E+01   4.353719E+01   1.676225E+02   1.676225E+02   1.442452E+02   2.089462E+02   4.298827E+02   5.780449E+02   3.713607E+02   6.137406E+01   3.334615E+01   1.831028E+01   1.790215E+01   3.285431E+01   1.717908E+01   2.193863E+01   9.502110E+01   3.246473E+02   1.440581E+02   4.254158E+01   1.162654E+01   1.707111E+01   3.246407E+01   3.691877E+01   2.938584E+01   7.854195E+01   1.182072E+02   2.834159E+02   5.353377E+01   4.356661E+01   3.347652E+01   2.206851E+01   2.359092E+01   1.368214E+01   3.655095E+01   4.902373E+01   5.664183E+01   1.609887E+02   1.288774E+02   6.957455E+01   8.193519E+01   6.867871E+01   5.384911E+01
   2.368959E+01   1.041884E+02   8.118409E+01   4.098677E+01   6.480389E+01   5.220538E+01   1.087551E+02   1.624762E+02   1.214874E+02   1.176375E+02   1.592261E+02   6.579704E+01   4.667503E+01   6.974884E+01   5.286351E+01   4.196481E+01   4.503516E+01   3.740121E+01   3.633889E+01   2.334393E+01   1.790527E+01   4.141466E+01   3.558714E+01   8.755225E+01   2.854992E+01   1.598499E+01   2.401386E+01   1.229521E+01   1.250030E+01   4.955198E+01   1.268663E+02   6.335243E+01   1.572675E+02   1.094354E+02   2.082763E+01   7.512432E+01   2.188716E+02   3.786410E+02   6.337441E+02   3.043658E+02   7.929991E+01   1.038065E+02   9.375867E+01   1.066102E+02   1.278859E+02   4.144593E+01   2.128755E+01   3.652206E+01   4.775699E+01   3.642657E+02   4.899563E+02   1.653080E+02   4.876678E+01   3.839807E+01   7.892233E+01   1.163421E+02   1.223387E+02   5.606382E+01   2.820520E+01   5.403008E+01   4.432846E+01   7.254819E+01   4.903221E+01   3.074611E+01   1.402674E+02   5.094998E+01   5.247760E+01   1.004522E+02   2.082473E+02   2.596104E+02   2.841757E+02   2.014467E+02   5.240096E+01   5.697590E+01   5.717002E+01   6.112053E+01   8.177921E+01   2.804142E+02   1.988941E+02   1.233522E+02   6.289716E+01   4.042059E+01   1.916387E+01   6.135842E+01   1.151940E+02   7.442253E+01   1.042722E+02   3.162196E+02   3.645182E+02   6.947931E+01   6.947931E+01   5.243350E+01   4.546749E+01   4.546749E+01   2.890878E+01   3.508694E+01   3.508694E+01   3.297828E+01   3.297828E+01   3.297828E+01   8.340155E+01   8.340155E+01   8.340155E+01   2.107010E+02   2.107010E+02   2.107010E+02   2.107010E+02   2.107010E+02   5.007803E+01   5.007803E+01   5.007803E+01   5.007803E+01   5.007803E+01   7.229082E+01   7.229082E+01   7.229082E+01   7.229082E+01   7.229082E+01   7.229082E+01   7.229082E+01   5.810486E+01   5.810486E+01   5.810486E+01   5.810486E+01   5.810486E+01   5.810486E+01   5.810486E+01   5.810486E+01   5.810486E+01   5.810486E+01   1.269442E+02   1.269442E+02   1.269442E+02   1.269442E+02   1.269442E+02   1.269442E+02   1.269442E+02   1.269442E+02   1.269442E+02   2.126698E+02   2.126698E+02   2.126698E+02   2.126698E+02   2.126698E+02   2.126698E+02   2.126698E+02   1.593058E+02   1.593058E+02   1.593058E+02   1.593058E+02   1.593058E+02   1.496239E+02   1.496239E+02   1.496239E+02   1.496239E+02   9.412717E+01   9.412717E+01   9.412717E+01   2.752421E+01   2.752421E+01   8.009248E+01   8.009248E+01   2.624198E+01   2.624198E+01   2.744447E+01   7.593861E+01   1.319546E+02   1.319546E+02   1.339715E+02   4.029329E+02   2.255043E+02   4.196449E+02   4.061618E+02   1.416129E+02   2.572058E+01   2.584660E+01   1.933855E+01   3.854654E+01   1.451824E+01   3.224541E+01   8.333520E+01   1.606121E+02   4.040857E+01   6.021293E+01   1.589955E+01   1.393064E+01   2.606580E+01   6.393545E+01   4.360063E+01   7.460173E+01   8.201353E+01   2.173901E+02   9.468719E+01   1.217068E+02   6.108866E+01   4.113493E+01   1.729521E+01   9.632120E+00   3.785259E+01   1.032861E+02   6.034715E+01   5.851143E+01   4.814700E+01   5.111990E+01   6.114705E+01   1.398727E+02   6.841327E+01
   1.799584E+01   7.726761E+01   1.415697E+02   6.326765E+01   8.468195E+01   3.182351E+01   1.027578E+02   3.611055E+02   1.349240E+02   2.220477E+02   1.308712E+02   5.826658E+01   8.949651E+01   4.932793E+01   6.158446E+01   4.479968E+01   1.789937E+01   5.634670E+01   2.414990E+01   2.189055E+01   2.310098E+01   3.032850E+01   5.520426E+01   9.262561E+01   4.312718E+01   2.014888E+01   1.038805E+01   1.162760E+01   1.545635E+01   3.659288E+01   8.295110E+01   1.222510E+02   1.004583E+02   1.253806E+02   8.489798E+01   8.086180E+01   1.964664E+02   2.599325E+02   4.942637E+02   2.188319E+02   4.689315E+01   4.473361E+01   8.509468E+01   5.733475E+01   8.373602E+01   4.475439E+01   1.985797E+01   2.467126E+01   1.742101E+01   1.473256E+02   3.521407E+02   2.600974E+02   7.490735E+01   3.927654E+01   1.593947E+02   1.194923E+02   1.378190E+02   8.821295E+01   3.134872E+01   7.560767E+01   4.422969E+01   9.795039E+01   4.155696E+01   5.060813E+01   1.034133E+02   5.461550E+01   4.422915E+01   5.633017E+01   5.720668E+01   1.525815E+02   1.315313E+02   1.446732E+02   4.736830E+01   7.152912E+01   1.194471E+02   5.584864E+01   1.389122E+02   7.763680E+01   8.869955E+01   7.921218E+01   1.159493E+02   4.161863E+01   4.756209E+01   3.278561E+02   6.437358E+01   4.755806E+01   9.881650E+01   2.163681E+02   3.118036E+02   1.427793E+02   1.427793E+02   6.066325E+01   4.179235E+01   4.179235E+01   4.073307E+01   4.297544E+01   4.297544E+01   2.209350E+01   2.209350E+01   2.209350E+01   2.310119E+01   2.310119E+01   2.310119E+01   1.373696E+02   1.373696E+02   1.373696E+02   1.373696E+02   1.373696E+02   4.189388E+01   4.189388E+01   4.189388E+01   4.189388E+01   4.189388E+01   4.491122E+01   4.491122E+01   4.491122E+01   4.491122E+01   4.491122E+01   4.491122E+01   4.491122E+01   4.381244E+01   4.381244E+01   4.381244E+01   4.381244E+01   4.381244E+01   4.381244E+01   4.381244E+01   4.381244E+01   4.381244E+01   4.381244E+01   2.255079E+02   2.255079E+02   2.255079E+02   2.255079E+02   2.255079E+02   2.255079E+02   2.255079E+02   2.255079E+02   2.255079E+02   9.057197E+01   9.057197E+01   9.057197E+01   9.057197E+01   9.057197E+01   9.057197E+01   9.057197E+01   9.229140E+01   9.229140E+01   9.229140E+01   9.229140E+01   9.229140E+01   1.510746E+02   1.510746E+02   1.510746E+02   1.510746E+02   4.389921E+01   4.389921E+01   4.389921E+01   2.273397E+01   2.273397E+01   3.017397E+01   3.017397E+01   4.204327E+01   4.204327E+01   2.972887E+01   1.191651E+02   7.549130E+01   7.549130E+01   1.261158E+02   1.819669E+02   1.140003E+02   1.719929E+02   1.731344E+02   1.745845E+02   1.074244E+02   5.198669E+01   2.360182E+01   3.157514E+01   2.081972E+01   6.022834E+01   1.356353E+02   6.537649E+01   3.035281E+01   2.138729E+01   1.645325E+01   2.480757E+01   2.365478E+01   3.284160E+01   4.817038E+01   7.592576E+01   5.540459E+01   1.575411E+02   9.565534E+01   1.513966E+02   4.779940E+01   5.287214E+01   3.588216E+01   1.127788E+01   2.235465E+01   1.130651E+02   1.752616E+02   7.909903E+01   5.825527E+01   4.688845E+01   6.694505E+01   1.227484E+02   1.454933E+02
   7.609147E+01   1.444393E+02   1.505709E+02   9.917308E+01   1.429845E+02   4.229844E+01   1.559077E+02   6.169377E+02   1.386235E+02   2.132048E+02   9.068518E+01   5.344721E+01   7.770015E+01   1.400459E+02   6.979595E+01   2.473968E+01   1.763167E+01   2.536362E+01   3.563473E+01   1.989195E+01   3.438470E+01   3.190368E+01   1.099416E+02   5.527061E+01   8.014279E+01   4.227000E+01   2.420421E+01   2.168354E+01   1.510638E+01   2.553171E+01   5.515948E+01   8.947650E+01   9.745101E+01   1.115788E+02   1.213236E+02   6.158617E+01   9.147810E+01   2.190118E+02   4.664216E+02   3.690625E+02   9.619796E+01   8.157091E+01   4.803002E+01   5.559706E+01   7.342970E+01   5.391888E+01   2.034954E+01   3.640927E+01   3.528458E+01   1.394386E+02   5.569205E+02   1.498852E+02   7.654063E+01   7.822119E+01   1.714858E+02   3.864022E+02   3.834488E+02   4.749992E+01   3.623599E+01   3.459580E+01   2.467505E+01   7.499802E+01   1.600773E+01   3.256709E+01   8.605384E+01   4.992702E+01   1.090568E+02   4.331449E+01   1.138464E+01   4.795902E+01   1.244614E+02   8.626649E+01   1.241201E+02   8.588676E+01   1.440592E+02   9.486607E+01   1.251028E+02   8.497537E+01   3.685841E+01   6.665201E+01   7.307872E+01   6.836046E+01   1.236402E+02   2.023936E+02   5.141536E+01   1.057140E+02   8.777294E+01   2.211540E+02   2.157007E+02   1.964482E+02   1.964482E+02   8.012903E+01   9.631007E+01   9.631007E+01   3.884523E+01   7.236768E+01   7.236768E+01   1.706504E+01   1.706504E+01   1.706504E+01   1.669273E+01   1.669273E+01   1.669273E+01   4.123506E+01   4.123506E+01   4.123506E+01   4.123506E+01   4.123506E+01   2.399341E+01   2.399341E+01   2.399341E+01   2.399341E+01   2.399341E+01   7.253748E+01   7.253748E+01   7.253748E+01   7.253748E+01   7.253748E+01   7.253748E+01   7.253748E+01   3.707481E+01   3.707481E+01   3.707481E+01   3.707481E+01   3.707481E+01   3.707481E+01   3.707481E+01   3.707481E+01   3.707481E+01   3.707481E+01   1.706326E+02   1.706326E+02   1.706326E+02   1.706326E+02   1.706326E+02   1.706326E+02   1.706326E+02   1.706326E+02   1.706326E+02   9.580106E+01   9.580106E+01   9.580106E+01   9.580106E+01   9.580106E+01   9.580106E+01   9.580106E+01   1.477010E+02   1.477010E+02   1.477010E+02   1.477010E+02   1.477010E+02   8.679092E+01   8.679092E+01   8.679092E+01   8.679092E+01   6.818742E+01   6.818742E+01   6.818742E+01   2.135031E+01   2.135031E+01   2.932476E+01   2.932476E+01   2.851481E+01   2.851481E+01   2.482025E+01   1.464374E+02   9.646589E+01   9.646589E+01   1.125611E+02   1.159166E+02   8.327221E+01   1.009876E+02   8.258493E+01   8.007429E+01   4.940217E+01   4.748186E+01   2.140966E+01   2.055062E+01   2.673769E+01   5.714047E+01   1.532997E+02   9.239355E+01   4.646107E+01   3.023071E+01   3.090008E+01   5.427634E+01   3.386380E+01   3.936066E+01   7.290442E+01   3.334920E+01   4.147204E+01   6.386727E+01   9.309666E+01   9.711758E+01   3.192916E+01   3.207713E+01   3.897649E+01   3.142456E+01   1.828651E+01   4.317247E+01   6.071355E+01   3.334054E+01   5.040190E+01   7.291074E+01   4.057240E+01   1.060989E+02   1.237374E+02
   9.910679E+01   1.747437E+02   1.784464E+02   8.523641E+01   7.523572E+01   7.014270E+01   1.113149E+02   4.675574E+02   1.944720E+02   6.400143E+01   8.177572E+01   1.386863E+02   9.303150E+01   2.182265E+02   3.369780E+01   1.875096E+01   1.009641E+01   2.263533E+01   6.250384E+01   1.843817E+01   3.329161E+01   6.595889E+01   7.851144E+01   5.737476E+01   6.963003E+01   3.304044E+01   4.162089E+01   1.808569E+01   1.556828E+01   3.198475E+01   5.420959E+01   1.456306E+02   7.144183E+01   9.115810E+01   9.974131E+01   6.591618E+01   1.647129E+02   2.825567E+02   3.124516E+02   2.766424E+02   8.784601E+01   4.654181E+01   7.137012E+01   1.869962E+02   1.134816E+02   7.042036E+01   2.570257E+01   5.275544E+01   5.042183E+01   1.084107E+02   2.853837E+02   1.330699E+02   2.108551E+02   8.724808E+01   1.849888E+02   2.082865E+02   3.754969E+02   2.126570E+01   5.703271E+01   4.049550E+01   1.093602E+02   4.040172E+01   3.600679E+01   3.592514E+01   1.391170E+02   1.609320E+01   3.532224E+01   4.315418E+01   2.157641E+01   5.543477E+01   1.275893E+02   7.327447E+01   8.701337E+01   7.688961E+01   5.277172E+02   4.144147E+01   1.008267E+02   8.278318E+01   5.371021E+01   1.088348E+02   8.626710E+01   2.368995E+02   3.175361E+02   1.120269E+02   1.045948E+02   5.740559E+01   1.253585E+02   1.677746E+02   1.874148E+02   2.044539E+02   2.044539E+02   1.536770E+02   8.913083E+01   8.913083E+01   5.555938E+01   8.570007E+01   8.570007E+01   2.210444E+01   2.210444E+01   2.210444E+01   2.043567E+01   2.043567E+01   2.043567E+01   4.064763E+01   4.064763E+01   4.064763E+01   4.064763E+01   4.064763E+01   3.777880E+01   3.777880E+01   3.777880E+01   3.777880E+01   3.777880E+01   3.909287E+01   3.909287E+01   3.909287E+01   3.909287E+01   3.909287E+01   3.909287E+01   3.909287E+01   4.958218E+01   4.958218E+01   4.958218E+01   4.958218E+01   4.958218E+01   4.958218E+01   4.958218E+01   4.958218E+01   4.958218E+01   4.958218E+01   7.250907E+01   7.250907E+01   7.250907E+01   7.250907E+01   7.250907E+01   7.250907E+01   7.250907E+01   7.250907E+01   7.250907E+01   1.940483E+01   1.940483E+01   1.940483E+01   1.940483E+01   1.940483E+01   1.940483E+01   1.940483E+01   5.769000E+01   5.769000E+01   5.769000E+01   5.769000E+01   5.769000E+01   8.179990E+01   8.179990E+01   8.179990E+01   8.179990E+01   4.821978E+01   4.821978E+01   4.821978E+01   1.506104E+01   1.506104E+01   2.614780E+01   2.614780E+01   3.086485E+01   3.086485E+01   3.878697E+01   6.186071E+01   6.172879E+01   6.172879E+01   1.138939E+02   1.048728E+02   8.837082E+01   1.412615E+02   7.740861E+01   4.058839E+01   4.982850E+01   1.996594E+01   2.513954E+01   1.731589E+01   3.351604E+01   9.210632E+01   1.863797E+02   1.718676E+02   1.410149E+02   9.718386E+01   8.436620E+01   7.260573E+01   4.251811E+01   3.513012E+01   4.892090E+01   1.919087E+01   1.789408E+01   3.361625E+01   8.415608E+01   8.155375E+01   2.782601E+01   7.288703E+01   3.061307E+01   3.481094E+01   2.028313E+01   4.638724E+01   4.125853E+01   4.408740E+01   2.842671E+01   8.662643E+01   2.907097E+01   6.355820E+01   6.019603E+01
   9.857486E+01   2.315002E+02   2.295454E+02   2.318618E+02   5.238636E+01   9.756491E+01   1.327065E+02   2.303866E+02   2.208708E+02   9.155914E+01   3.477380E+01   6.876250E+01   9.787202E+01   1.646630E+02   3.646541E+01   6.272086E+00   7.548116E+00   2.963358E+01   2.933756E+01   2.010208E+01   1.178370E+02   1.550154E+02   1.100580E+02   7.591095E+01   4.712357E+01   4.587686E+01   3.393036E+01   2.450157E+01   1.048332E+01   1.848319E+01   5.100835E+01   1.629403E+02   4.489569E+01   4.933152E+01   3.723926E+01   1.730118E+02   1.621337E+02   3.134862E+02   1.443886E+02   1.944032E+02   5.778071E+01   1.088893E+01   9.774069E+01   1.520962E+02   8.222971E+01   3.272108E+01   1.931486E+01   3.856734E+01   5.554079E+01   9.757632E+01   3.177093E+02   1.590632E+02   2.581390E+02   2.462068E+02   2.222430E+02   4.387050E+02   6.803705E+01   4.098698E+01   8.533415E+01   6.675050E+01   1.172501E+02   1.117801E+02   4.386063E+01   4.662245E+01   6.497247E+01   6.052776E+01   2.604996E+01   3.010955E+01   1.220061E+01   3.912945E+01   1.015686E+02   5.552618E+01   1.152468E+02   6.916807E+01   1.409243E+02   1.643879E+01   4.644941E+01   3.952757E+01   2.925683E+01   5.099311E+01   9.951740E+01   1.965884E+02   3.322349E+02   3.047422E+02   8.314271E+01   3.109190E+01   9.109982E+01   1.086755E+02   3.251597E+02   2.223768E+02   2.223768E+02   1.562578E+02   4.230959E+01   4.230959E+01   5.513921E+01   7.554773E+01   7.554773E+01   3.729543E+01   3.729543E+01   3.729543E+01   2.640865E+01   2.640865E+01   2.640865E+01   3.233411E+01   3.233411E+01   3.233411E+01   3.233411E+01   3.233411E+01   2.370205E+01   2.370205E+01   2.370205E+01   2.370205E+01   2.370205E+01   5.142090E+01   5.142090E+01   5.142090E+01   5.142090E+01   5.142090E+01   5.142090E+01   5.142090E+01   4.565252E+01   4.565252E+01   4.565252E+01   4.565252E+01   4.565252E+01   4.565252E+01   4.565252E+01   4.565252E+01   4.565252E+01   4.565252E+01   4.067313E+01   4.067313E+01   4.067313E+01   4.067313E+01   4.067313E+01   4.067313E+01   4.067313E+01   4.067313E+01   4.067313E+01   3.438162E+01   3.438162E+01   3.438162E+01   3.438162E+01   3.438162E+01   3.438162E+01   3.438162E+01   6.902051E+01   6.902051E+01   6.902051E+01   6.902051E+01   6.902051E+01   4.738588E+01   4.738588E+01   4.738588E+01   4.738588E+01   5.646266E+01   5.646266E+01   5.646266E+01   5.813348E+01   5.813348E+01   3.908598E+01   3.908598E+01   2.746381E+01   2.746381E+01   3.079247E+01   2.392147E+01   6.869972E+01   6.869972E+01   8.088210E+01   4.992624E+01   1.371633E+02   1.155286E+02   1.282487E+02   8.089989E+01   4.290717E+01   1.610779E+01   1.022636E+01   1.846956E+01   4.604579E+01   1.176956E+02   1.401936E+02   1.800546E+02   1.700539E+02   1.266038E+02   8.234076E+01   6.107230E+01   5.830563E+01   4.006710E+01   9.109747E+01   1.913260E+01   3.324415E+01   1.745667E+01   2.828546E+01   6.880134E+01   2.834081E+01   2.845774E+01   3.183509E+01   4.993770E+01   2.528265E+01   2.644186E+01   2.579889E+01   3.061071E+01   3.802693E+01   1.251924E+02   9.694814E+01   3.408986E+01   8.127054E+01
   7.726689E+01   2.338222E+02   1.658087E+02   9.518755E+01   9.354918E+01   6.095270E+01   9.309349E+01   1.063939E+02   1.042507E+02   5.160082E+01   3.313008E+01   7.220199E+01   1.065068E+02   6.608508E+01   4.295520E+01   5.858895E+00   4.371222E+00   1.978932E+01   1.471701E+01   2.920498E+01   5.999136E+01   1.407783E+02   1.163648E+02   9.467255E+01   5.529556E+01   3.598471E+01   2.512657E+01   2.112301E+01   2.270669E+01   1.946078E+01   4.366437E+01   8.315636E+01   3.202675E+01   4.185457E+01   5.806820E+01   2.301657E+02   1.676276E+02   2.266477E+02   1.077005E+02   1.464318E+02   3.972750E+01   1.874388E+01   1.068205E+02   1.107592E+02   1.345631E+02   4.915001E+01   1.579517E+01   4.231437E+01   8.597734E+01   8.636543E+01   3.382267E+02   1.932560E+02   9.705787E+01   1.751536E+02   1.142847E+02   8.466238E+01   5.056496E+01   1.024583E+02   1.072407E+02   1.734386E+02   1.248090E+02   9.447867E+01   4.759611E+01   3.714251E+01   1.977797E+01   7.968785E+01   2.526942E+01   1.799074E+01   1.877054E+01   6.575938E+01   4.986132E+01   3.095540E+01   6.878197E+01   6.163092E+01   8.694934E+01   4.470818E+01   3.201483E+01   4.489354E+01   3.617185E+01   7.508593E+01   1.160100E+02   1.711971E+02   1.926228E+02   2.987516E+02   1.323981E+02   4.003974E+01   3.515946E+01   4.546385E+01   2.261972E+02   2.490167E+02   2.490167E+02   1.053745E+02   2.900742E+01   2.900742E+01   4.322037E+01   2.369254E+01   2.369254E+01   1.076048E+01   1.076048E+01   1.076048E+01   4.795287E+01   4.795287E+01   4.795287E+01   2.879695E+01   2.879695E+01   2.879695E+01   2.879695E+01   2.879695E+01   1.862387E+01   1.862387E+01   1.862387E+01   1.862387E+01   1.862387E+01   5.974483E+01   5.974483E+01   5.974483E+01   5.974483E+01   5.974483E+01   5.974483E+01   5.974483E+01   4.296459E+01   4.296459E+01   4.296459E+01   4.296459E+01   4.296459E+01   4.296459E+01   4.296459E+01   4.296459E+01   4.296459E+01   4.296459E+01   3.195850E+01   3.195850E+01   3.195850E+01   3.195850E+01   3.195850E+01   3.195850E+01   3.195850E+01   3.195850E+01   3.195850E+01   2.270298E+01   2.270298E+01   2.270298E+01   2.270298E+01   2.270298E+01   2.270298E+01   2.270298E+01   4.959006E+01   4.959006E+01   4.959006E+01   4.959006E+01   4.959006E+01   2.239242E+01   2.239242E+01   2.239242E+01   2.239242E+01   3.044274E+01   3.044274E+01   3.044274E+01   6.061131E+01   6.061131E+01   3.053221E+01   3.053221E+01   3.434048E+01   3.434048E+01   1.141370E+01   1.561278E+01   5.162410E+01   5.162410E+01   4.135514E+01   8.692826E+01   1.110661E+02   7.922902E+01   9.539342E+01   1.177695E+02   6.086196E+01   3.238728E+01   1.011702E+01   8.021078E+00   3.246970E+01   4.557324E+01   2.046736E+02   1.237901E+02   1.388389E+02   9.415147E+01   1.402621E+02   7.143952E+01   3.558017E+01   3.305374E+01   7.094226E+01   2.966751E+01   2.015671E+01   3.049928E+01   2.470252E+01   3.247692E+01   2.933010E+01   2.002027E+01   2.380797E+01   3.388230E+01   2.749719E+01   2.128165E+01   2.189137E+01   4.026261E+01   3.858220E+01   1.195913E+02   6.949931E+01   1.959127E+01   6.588334E+01
   7.217292E+01   2.255512E+02   1.757005E+02   2.609601E+02   1.101557E+02   5.747444E+01   1.662836E+02   6.734293E+01   7.969848E+01   9.164222E+01   2.743197E+01   4.331410E+01   9.689407E+01   5.603251E+01   2.283914E+01   9.078664E+00   6.487050E+00   2.783997E+01   1.718953E+01   3.791849E+01   3.431379E+01   9.635265E+01   8.898997E+01   9.534187E+01   3.344035E+01   4.675639E+01   1.494547E+01   2.141223E+01   1.633678E+01   2.271911E+01   5.102026E+01   3.798505E+01   6.803734E+01   8.381293E+01   5.152019E+01   1.427172E+02   1.681413E+02   2.387328E+02   1.653530E+02   4.095719E+01   7.059203E+01   6.183025E+01   4.078295E+01   1.001681E+02   9.794687E+01   7.160606E+01   4.012959E+01   5.549338E+01   8.240795E+01   1.635693E+02   2.960604E+02   1.333448E+02   1.024159E+02   1.155985E+02   7.516080E+01   2.318624E+01   2.602490E+01   7.911230E+01   7.800839E+01   4.425564E+02   2.664685E+02   1.244663E+02   7.142785E+01   5.212658E+01   3.258007E+01   4.040197E+01   1.854100E+01   2.263265E+01   2.695562E+01   6.337551E+01   5.890427E+01   3.837617E+01   4.033849E+01   5.844640E+01   1.026057E+02   5.977907E+01   4.483070E+01   2.944162E+01   2.035011E+01   4.629135E+01   8.637224E+01   1.568322E+02   1.356461E+02   1.870899E+02   2.871939E+02   2.842655E+01   2.327794E+01   4.434014E+01   1.695312E+02   1.207779E+02   1.207779E+02   1.074100E+02   4.705286E+01   4.705286E+01   2.716925E+01   7.611918E+00   7.611918E+00   1.038393E+01   1.038393E+01   1.038393E+01   3.463959E+01   3.463959E+01   3.463959E+01   1.055909E+02   1.055909E+02   1.055909E+02   1.055909E+02   1.055909E+02   2.430099E+01   2.430099E+01   2.430099E+01   2.430099E+01   2.430099E+01   7.285490E+01   7.285490E+01   7.285490E+01   7.285490E+01   7.285490E+01   7.285490E+01   7.285490E+01   3.705018E+01   3.705018E+01   3.705018E+01   3.705018E+01   3.705018E+01   3.705018E+01   3.705018E+01   3.705018E+01   3.705018E+01   3.705018E+01   1.388819E+01   1.388819E+01   1.388819E+01   1.388819E+01   1.388819E+01   1.388819E+01   1.388819E+01   1.388819E+01   1.388819E+01   2.130836E+01   2.130836E+01   2.130836E+01   2.130836E+01   2.130836E+01   2.130836E+01   2.130836E+01   5.676940E+01   5.676940E+01   5.676940E+01   5.676940E+01   5.676940E+01   4.447870E+01   4.447870E+01   4.447870E+01   4.447870E+01   3.779023E+01   3.779023E+01   3.779023E+01   8.217590E+01   8.217590E+01   7.151649E+01   7.151649E+01   7.772623E+01   7.772623E+01   1.635809E+01   2.919332E+01   5.049152E+01   5.049152E+01   7.455067E+01   1.095114E+02   4.027164E+01   8.050100E+01   9.698222E+01   8.231165E+01   4.236034E+01   2.997262E+01   7.681674E+00   2.934303E+01   2.061939E+01   4.133714E+01   1.605947E+02   6.074453E+01   1.051955E+02   8.817897E+01   8.411529E+01   1.277275E+02   1.045508E+02   3.321859E+01   5.430412E+01   1.029473E+02   1.261919E+01   1.088187E+01   1.771925E+01   1.922238E+01   4.290594E+01   5.386378E+01   8.447071E+01   1.988744E+01   1.941488E+01   1.161736E+01   1.125544E+01   3.169851E+01   8.108253E+01   7.658823E+01   6.356299E+01   4.892544E+01   3.669057E+01
   7.212814E+01   8.148082E+01   1.528758E+02   2.720256E+02   8.443367E+01   9.665122E+01   1.615761E+02   6.052538E+01   7.402562E+01   8.910892E+01   3.792576E+01   3.013042E+01   2.610523E+01   3.621780E+01   2.826166E+01   1.612045E+01   6.434137E+00   3.847517E+01   1.960080E+01   2.574453E+01   5.227989E+01   7.549491E+01   7.622134E+01   1.153761E+02   2.807681E+01   2.570257E+01   1.765615E+01   3.569807E+01   2.654358E+01   3.604101E+01   5.583483E+01   3.920646E+01   7.193401E+01   5.468247E+01   6.140289E+01   2.588982E+02   1.703755E+02   1.994023E+02   1.327508E+02   5.195905E+01   8.144363E+01   5.967259E+01   9.043239E+01   1.072334E+02   1.719783E+02   9.782962E+01   6.960770E+01   6.190253E+01   1.089296E+02   2.613042E+02   2.280912E+02   1.057440E+02   9.395227E+01   3.536705E+01   1.778487E+01   1.754310E+01   2.344253E+01   7.016307E+01   6.406796E+01   2.077192E+02   3.896674E+02   4.685838E+02   6.339638E+01   4.858438E+01   3.673516E+01   3.676621E+01   3.310142E+01   2.164232E+01   2.780908E+01   7.520213E+01   2.451175E+01   4.418960E+01   6.678265E+01   3.686168E+01   5.030592E+01   5.839344E+01   5.953450E+01   3.554910E+01   1.712277E+01   3.149399E+01   3.068886E+01   1.882568E+02   1.437839E+02   2.295579E+02   2.030681E+02   6.567620E+01   5.065235E+01   4.040977E+01   2.386580E+02   1.108645E+02   1.108645E+02   1.775162E+02   4.878642E+01   4.878642E+01   2.188390E+01   1.848620E+01   1.848620E+01   1.437110E+01   1.437110E+01   1.437110E+01   5.447518E+01   5.447518E+01   5.447518E+01   4.501204E+01   4.501204E+01   4.501204E+01   4.501204E+01   4.501204E+01   4.787071E+01   4.787071E+01   4.787071E+01   4.787071E+01   4.787071E+01   3.109006E+01   3.109006E+01   3.109006E+01   3.109006E+01   3.109006E+01   3.109006E+01   3.109006E+01   1.888418E+01   1.888418E+01   1.888418E+01   1.888418E+01   1.888418E+01   1.888418E+01   1.888418E+01   1.888418E+01   1.888418E+01   1.888418E+01   9.043969E+00   9.043969E+00   9.043969E+00   9.043969E+00   9.043969E+00   9.043969E+00   9.043969E+00   9.043969E+00   9.043969E+00   2.179947E+01   2.179947E+01   2.179947E+01   2.179947E+01   2.179947E+01   2.179947E+01   2.179947E+01   3.008479E+01   3.008479E+01   3.008479E+01   3.008479E+01   3.008479E+01   3.934892E+01   3.934892E+01   3.934892E+01   3.934892E+01   6.060831E+01   6.060831E+01   6.060831E+01   6.382022E+01   6.382022E+01   2.623449E+01   2.623449E+01   4.623927E+01   4.623927E+01   3.057466E+01   4.288809E+01   5.843168E+01   5.843168E+01   1.418693E+02   2.993198E+02   6.979745E+01   4.071880E+01   1.069471E+02   4.654655E+01   5.955314E+01   3.464170E+01   1.595210E+01   2.700880E+01   3.290955E+01   4.358064E+01   8.321581E+01   7.364062E+01   1.165786E+02   9.175090E+01   1.157892E+02   1.799122E+02   3.290002E+01   3.423417E+01   5.256162E+01   6.589010E+01   1.004327E+01   1.176615E+01   1.869034E+01   2.212175E+01   5.267356E+01   4.615228E+01   8.994282E+01   5.834585E+01   2.427080E+01   1.038296E+01   1.672459E+01   5.114988E+01   7.127898E+01   8.544855E+01   7.328877E+01   5.393746E+01   2.877000E+01