# LPF package for  MODFLOW-2005, generated by Flopy.
        53    -1E+30         0  
         1
         0
   0.000000E+00
         0
         0
INTERNAL               1 (207E15.6) -1 #hk layer 1                    
   1.243639E+01   3.304223E+01   6.556120E+01   2.374779E+01   5.479760E+01   5.642965E+01   4.323795E+01   6.576649E+01   8.226218E+01   4.263911E+01   1.230012E+02   9.480828E+01   7.630082E+01   5.104309E+01   9.335410E+01   1.110536E+02   2.892635E+01   2.504554E+01   1.084797E+01   1.470663E+01   1.652480E+01   4.922808E+01   9.746737E+01   4.125703E+01   2.008740E+01   1.673769E+01   2.359849E+01   1.105512E+02   1.404685E+02   7.655473E+01   4.594371E+01   1.418598E+01   1.483698E+01   1.050043E+01   3.532204E+01   9.071621E+01   5.486031E+01   5.721818E+01   2.242182E+01   2.041890E+01   2.924747E+01   5.028351E+01   2.929464E+01   5.644135E+01   7.400100E+01   4.197845E+01   9.243658E+00   8.416477E+00   1.034687E+01   1.619523E+01   4.729574E+01   6.322826E+01   6.038344E+01   3.430173E+01   2.973588E+01   6.683093E+01   4.626770E+01   1.786431E+01   5.380987E+01   1.441351E+01   1.071179E+01   1.670543E+01   3.984038E+01   1.160257E+02   8.375352E+01   1.104446E+02   4.739864E+02   7.486213E+02   1.930265E+02   6.467459E+01   1.439788E+01   2.820930E+01   1.013002E+02   4.027827E+01   2.244171E+01   1.246204E+01   1.701795E+01   1.041877E+01   2.328750E+01   2.059767E+01   4.627835E+01   1.327110E+02   8.480012E+01   1.247066E+02   1.377907E+02   9.347042E+01   4.221309E+01   6.753144E+01   3.555184E+01   2.870007E+01   2.870007E+01   4.955303E+01   3.469881E+01   3.469881E+01   1.363300E+02   5.566750E+01   5.566750E+01   9.044637E+01   9.044637E+01   9.044637E+01   1.224845E+02   1.224845E+02   1.224845E+02   8.950337E+01   8.950337E+01   8.950337E+01   8.950337E+01   8.950337E+01   7.442186E+01   7.442186E+01   7.442186E+01   7.442186E+01   7.442186E+01   2.222974E+02   2.222974E+02   2.222974E+02   2.222974E+02   2.222974E+02   2.222974E+02   2.222974E+02   1.186034E+02   1.186034E+02   1.186034E+02   1.186034E+02   1.186034E+02   1.186034E+02   1.186034E+02   1.186034E+02   1.186034E+02   1.186034E+02   8.378270E+01   8.378270E+01   8.378270E+01   8.378270E+01   8.378270E+01   8.378270E+01   8.378270E+01   8.378270E+01   8.378270E+01   1.988353E+01   1.988353E+01   1.988353E+01   1.988353E+01   1.988353E+01   1.988353E+01   1.988353E+01   4.678273E+00   4.678273E+00   4.678273E+00   4.678273E+00   4.678273E+00   9.461732E+00   9.461732E+00   9.461732E+00   9.461732E+00   2.260204E+01   2.260204E+01   2.260204E+01   3.707257E+01   3.707257E+01   4.026749E+01   4.026749E+01   1.128939E+02   1.128939E+02   1.142414E+02   8.366181E+01   6.036916E+01   6.036916E+01   1.274310E+02   1.637078E+02   1.749005E+02   1.931648E+02   2.826091E+01   5.025371E+01   4.356082E+01   5.405276E+01   6.615495E+01   5.352572E+01   8.439819E+01   6.426835E+01   4.529770E+01   3.438105E+01   5.633455E+01   8.682874E+01   3.799847E+01   1.352805E+01   1.452933E+01   1.392625E+01   7.570239E+00   1.001134E+01   2.506324E+01   3.216522E+01   2.572760E+01   1.754936E+01   6.768708E+00   4.834178E+00   1.715257E+01   3.254652E+01   7.125989E+01   2.253754E+02   9.659971E+01   9.722952E+01   1.390986E+02   1.593620E+02   9.349714E+01   8.839841E+01   5.082036E+01
   1.269982E+01   4.415896E+01   6.027499E+01   4.947618E+01   3.310482E+01   5.600749E+01   4.057986E+01   4.993019E+01   1.287608E+02   2.851044E+01   1.052268E+02   8.791469E+01   7.610952E+01   9.572013E+01   8.179083E+01   1.283868E+02   8.917550E+01   1.964378E+01   1.560105E+01   2.068299E+01   2.262767E+01   5.361914E+01   4.351899E+01   3.398742E+01   4.387921E+01   1.537153E+01   1.561771E+01   1.662336E+02   8.734923E+01   7.523934E+01   1.667684E+01   1.481577E+01   8.172678E+00   1.177990E+01   3.077015E+01   3.565691E+01   2.093327E+01   1.905245E+01   4.376505E+01   2.268522E+01   7.023824E+01   6.816974E+01   3.280706E+01   3.582236E+01   1.105623E+02   6.397515E+01   1.590375E+01   3.885483E+00   4.112738E+00   2.391278E+01   4.709734E+01   5.608734E+01   6.583469E+01   3.931518E+01   3.311538E+01   3.136218E+01   1.540729E+01   1.895167E+01   2.262366E+01   2.210805E+01   6.777207E+00   7.819036E+00   2.471088E+01   3.259534E+01   5.955876E+01   1.052411E+02   2.107191E+02   3.812874E+02   1.192735E+02   4.702060E+01   4.442191E+01   6.533594E+01   1.161282E+02   2.864454E+01   1.546075E+01   1.781943E+01   2.140772E+01   2.974109E+01   2.878686E+01   4.310459E+01   4.262879E+01   4.763591E+01   3.820656E+01   8.695477E+01   1.141429E+02   7.741777E+01   9.081326E+01   5.379615E+01   4.684817E+01   2.743355E+01   2.743355E+01   3.849275E+01   5.297176E+01   5.297176E+01   1.326049E+02   7.317785E+01   7.317785E+01   6.957500E+01   6.957500E+01   6.957500E+01   1.027326E+02   1.027326E+02   1.027326E+02   3.379432E+02   3.379432E+02   3.379432E+02   3.379432E+02   3.379432E+02   8.589433E+01   8.589433E+01   8.589433E+01   8.589433E+01   8.589433E+01   1.591748E+02   1.591748E+02   1.591748E+02   1.591748E+02   1.591748E+02   1.591748E+02   1.591748E+02   1.022840E+02   1.022840E+02   1.022840E+02   1.022840E+02   1.022840E+02   1.022840E+02   1.022840E+02   1.022840E+02   1.022840E+02   1.022840E+02   6.056254E+01   6.056254E+01   6.056254E+01   6.056254E+01   6.056254E+01   6.056254E+01   6.056254E+01   6.056254E+01   6.056254E+01   1.664786E+01   1.664786E+01   1.664786E+01   1.664786E+01   1.664786E+01   1.664786E+01   1.664786E+01   4.667901E+00   4.667901E+00   4.667901E+00   4.667901E+00   4.667901E+00   8.145369E+00   8.145369E+00   8.145369E+00   8.145369E+00   1.859981E+01   1.859981E+01   1.859981E+01   2.389337E+01   2.389337E+01   4.580627E+01   4.580627E+01   7.009230E+01   7.009230E+01   8.988245E+01   3.384327E+01   6.473784E+01   6.473784E+01   7.127992E+01   1.944364E+02   1.508561E+02   4.399757E+02   4.030778E+01   4.599275E+01   4.796799E+01   7.194382E+01   7.257397E+01   9.246209E+01   1.700693E+02   7.542141E+01   8.359928E+01   3.636610E+01   3.687144E+01   8.558282E+01   4.277439E+01   2.386622E+01   6.339863E+01   1.588882E+01   2.351747E+01   2.322994E+01   2.241368E+01   3.878561E+01   2.170936E+01   1.744525E+01   1.629906E+01   5.593531E+00   2.241542E+01   5.472232E+01   9.314097E+01   1.145899E+02   9.205353E+01   9.780482E+01   1.002336E+02   1.564218E+02   7.265062E+01   9.243244E+01   1.204900E+02
   1.862602E+01   4.428606E+01   4.151729E+01   5.601769E+01   3.807914E+01   3.873788E+01   4.528058E+01   8.837718E+01   1.061037E+02   6.073501E+01   8.553683E+01   1.264806E+02   7.047298E+01   5.998799E+01   7.056763E+01   7.837044E+01   5.838011E+01   1.954531E+01   2.058965E+01   2.980901E+01   2.385836E+01   3.147677E+01   4.713346E+01   2.806072E+01   3.923608E+01   9.831407E+00   4.461034E+01   6.540353E+01   1.279459E+02   7.265540E+01   3.106046E+01   1.815902E+01   9.231194E+00   8.441033E+00   1.509788E+01   3.780888E+01   1.898415E+01   2.449092E+01   4.984746E+01   5.370461E+01   7.701590E+01   4.351496E+01   1.830859E+01   3.492155E+01   9.903120E+01   5.029916E+01   1.685762E+01   4.883614E+00   7.272823E+00   5.283147E+01   3.947575E+01   3.828444E+01   5.091364E+01   4.815762E+01   3.986353E+01   2.497937E+01   1.918755E+01   2.363124E+01   4.358186E+01   4.194539E+01   5.414408E+00   6.238945E+00   1.467172E+01   5.265525E+01   9.493586E+01   6.073891E+01   6.783478E+01   1.969436E+02   6.969475E+01   2.879399E+01   5.907316E+01   4.235994E+01   8.306138E+01   2.720320E+01   9.687112E+00   2.330163E+01   3.546563E+01   4.441682E+01   3.735331E+01   2.390457E+01   7.432388E+01   2.939816E+01   5.146460E+01   2.995682E+01   9.199503E+01   1.742383E+02   1.449731E+02   1.181662E+02   2.807596E+01   4.632654E+01   4.632654E+01   6.238822E+01   9.492220E+01   9.492220E+01   8.499612E+01   6.551699E+01   6.551699E+01   1.052158E+02   1.052158E+02   1.052158E+02   1.128026E+02   1.128026E+02   1.128026E+02   1.350858E+02   1.350858E+02   1.350858E+02   1.350858E+02   1.350858E+02   1.419919E+02   1.419919E+02   1.419919E+02   1.419919E+02   1.419919E+02   2.035315E+02   2.035315E+02   2.035315E+02   2.035315E+02   2.035315E+02   2.035315E+02   2.035315E+02   7.014376E+01   7.014376E+01   7.014376E+01   7.014376E+01   7.014376E+01   7.014376E+01   7.014376E+01   7.014376E+01   7.014376E+01   7.014376E+01   4.235937E+01   4.235937E+01   4.235937E+01   4.235937E+01   4.235937E+01   4.235937E+01   4.235937E+01   4.235937E+01   4.235937E+01   2.268604E+01   2.268604E+01   2.268604E+01   2.268604E+01   2.268604E+01   2.268604E+01   2.268604E+01   1.595355E+01   1.595355E+01   1.595355E+01   1.595355E+01   1.595355E+01   1.102878E+01   1.102878E+01   1.102878E+01   1.102878E+01   2.249376E+01   2.249376E+01   2.249376E+01   1.924108E+01   1.924108E+01   3.087254E+01   3.087254E+01   1.866310E+01   1.866310E+01   2.613764E+01   2.190364E+01   9.905550E+01   9.905550E+01   3.748922E+01   1.798951E+02   1.750261E+02   6.634443E+02   1.564839E+02   3.967430E+01   9.223170E+01   1.110693E+02   1.785271E+02   1.066132E+02   1.012617E+02   5.374744E+01   2.892817E+01   5.142705E+01   5.886957E+01   3.940872E+01   3.838882E+01   2.829591E+01   6.294432E+01   2.108507E+01   4.535618E+01   5.004704E+01   9.681380E+01   4.782140E+01   2.691634E+01   3.234141E+01   1.720902E+01   1.948579E+01   2.016146E+01   3.263514E+01   7.649580E+01   7.794878E+01   6.402197E+01   8.135396E+01   1.369170E+02   9.825855E+01   9.779901E+01   7.567173E+01   9.396861E+01
   5.519484E+01   8.616348E+01   4.939050E+01   4.088401E+01   2.584013E+01   2.997630E+01   4.510688E+01   9.538884E+01   1.123842E+02   5.998294E+01   7.880706E+01   7.036945E+01   3.007219E+01   1.034705E+02   4.725410E+01   4.513933E+01   3.694966E+01   2.535923E+01   5.007576E+01   3.541617E+01   2.079044E+01   3.199836E+01   2.684671E+01   1.074612E+01   3.150004E+01   1.450594E+01   2.815193E+01   7.255317E+01   1.529903E+02   9.758894E+01   2.208904E+01   2.487811E+01   2.431140E+01   2.083532E+01   2.328840E+01   1.445788E+01   1.551369E+01   2.070264E+01   7.916171E+01   9.550597E+01   1.050876E+02   4.578763E+01   1.657518E+01   4.657053E+01   7.661333E+01   3.164643E+01   2.367926E+01   5.517169E+00   1.165956E+01   3.094215E+01   2.327306E+01   2.266921E+01   4.411586E+01   3.669783E+01   2.655666E+01   1.902640E+01   4.707170E+01   4.084070E+01   3.578812E+01   2.591142E+01   2.330474E+01   2.086181E+01   1.598456E+01   3.419183E+01   5.133267E+01   2.500270E+01   1.649396E+01   4.572905E+01   3.365285E+01   2.969979E+01   3.406326E+01   2.776936E+01   5.886836E+01   2.910672E+01   1.182911E+01   1.244486E+01   1.743764E+01   3.907910E+01   6.603596E+01   3.114405E+01   8.544408E+01   4.343431E+01   3.497272E+01   3.838792E+01   7.503148E+01   1.687631E+02   1.815172E+02   5.759841E+01   8.065038E+01   4.308562E+01   4.308562E+01   7.948615E+01   5.205109E+01   5.205109E+01   6.060721E+01   1.022917E+02   1.022917E+02   9.181200E+01   9.181200E+01   9.181200E+01   1.660329E+02   1.660329E+02   1.660329E+02   1.953301E+02   1.953301E+02   1.953301E+02   1.953301E+02   1.953301E+02   1.060067E+02   1.060067E+02   1.060067E+02   1.060067E+02   1.060067E+02   1.385158E+02   1.385158E+02   1.385158E+02   1.385158E+02   1.385158E+02   1.385158E+02   1.385158E+02   5.714462E+01   5.714462E+01   5.714462E+01   5.714462E+01   5.714462E+01   5.714462E+01   5.714462E+01   5.714462E+01   5.714462E+01   5.714462E+01   2.736228E+01   2.736228E+01   2.736228E+01   2.736228E+01   2.736228E+01   2.736228E+01   2.736228E+01   2.736228E+01   2.736228E+01   1.655574E+01   1.655574E+01   1.655574E+01   1.655574E+01   1.655574E+01   1.655574E+01   1.655574E+01   2.037543E+01   2.037543E+01   2.037543E+01   2.037543E+01   2.037543E+01   7.675967E+00   7.675967E+00   7.675967E+00   7.675967E+00   1.505232E+01   1.505232E+01   1.505232E+01   2.793309E+01   2.793309E+01   2.177066E+01   2.177066E+01   1.077312E+01   1.077312E+01   2.436186E+01   4.477039E+01   4.986762E+01   4.986762E+01   4.448843E+01   1.349507E+02   2.728832E+02   3.720975E+02   1.698449E+02   3.705687E+01   8.237887E+01   1.359299E+02   2.718105E+02   7.008707E+01   7.889515E+01   5.009892E+01   5.455862E+01   7.779332E+01   7.638213E+01   5.959879E+01   3.733962E+01   2.770637E+01   6.139732E+01   3.483609E+01   5.679723E+01   4.683004E+01   6.877205E+01   3.894029E+01   3.957819E+01   3.868599E+01   2.638259E+01   1.049695E+01   1.244775E+01   4.311173E+01   4.321766E+01   5.152833E+01   4.278496E+01   4.132796E+01   1.277409E+02   1.068182E+02   1.090755E+02   8.678873E+01   5.356266E+01
   6.005011E+01   1.059196E+02   8.537547E+01   3.814177E+01   3.432172E+01   4.757118E+01   6.417083E+01   9.319529E+01   1.342825E+02   1.139770E+02   4.607457E+01   5.032403E+01   2.836929E+01   1.941072E+02   8.808957E+01   4.812138E+01   7.923452E+01   4.998999E+01   4.676983E+01   3.123696E+01   2.481847E+01   2.799385E+01   3.385415E+01   1.607304E+01   2.971156E+01   2.184325E+01   1.616103E+01   2.054929E+02   3.132396E+02   1.773655E+02   1.614281E+01   2.824398E+01   4.985664E+01   3.311049E+01   1.537869E+01   2.873018E+01   2.353687E+01   2.742981E+01   1.297856E+02   3.814577E+01   7.055374E+01   1.200812E+02   3.339003E+01   2.456130E+01   2.608011E+01   4.210043E+01   2.147661E+01   1.385103E+01   2.138119E+01   2.384381E+01   2.244491E+01   3.364101E+01   2.447203E+01   2.682210E+01   3.247193E+01   2.300140E+01   9.607692E+01   3.530358E+01   4.111937E+01   1.409173E+01   1.663397E+01   3.896583E+01   2.417505E+01   2.887644E+01   3.019273E+01   2.303723E+01   1.058731E+01   2.819480E+01   2.416029E+01   4.414821E+01   6.199256E+01   6.807474E+01   4.972703E+01   3.538083E+01   1.454566E+01   2.318245E+01   7.803333E+01   4.793412E+01   6.156508E+01   8.037062E+01   9.805507E+01   5.630063E+01   8.625953E+01   3.299019E+01   7.687756E+01   6.291547E+01   1.397197E+02   8.982279E+01   2.106146E+02   6.813010E+01   6.813010E+01   1.033046E+02   8.516799E+01   8.516799E+01   6.425655E+01   9.640381E+01   9.640381E+01   1.435392E+02   1.435392E+02   1.435392E+02   1.074576E+02   1.074576E+02   1.074576E+02   1.488028E+02   1.488028E+02   1.488028E+02   1.488028E+02   1.488028E+02   1.503878E+02   1.503878E+02   1.503878E+02   1.503878E+02   1.503878E+02   1.678560E+02   1.678560E+02   1.678560E+02   1.678560E+02   1.678560E+02   1.678560E+02   1.678560E+02   4.435669E+01   4.435669E+01   4.435669E+01   4.435669E+01   4.435669E+01   4.435669E+01   4.435669E+01   4.435669E+01   4.435669E+01   4.435669E+01   2.726723E+01   2.726723E+01   2.726723E+01   2.726723E+01   2.726723E+01   2.726723E+01   2.726723E+01   2.726723E+01   2.726723E+01   2.515576E+01   2.515576E+01   2.515576E+01   2.515576E+01   2.515576E+01   2.515576E+01   2.515576E+01   2.020974E+01   2.020974E+01   2.020974E+01   2.020974E+01   2.020974E+01   7.670412E+00   7.670412E+00   7.670412E+00   7.670412E+00   9.499888E+00   9.499888E+00   9.499888E+00   2.629492E+01   2.629492E+01   2.285858E+01   2.285858E+01   1.067982E+01   1.067982E+01   6.086370E+00   1.088049E+01   1.474096E+01   1.474096E+01   7.163882E+01   1.988603E+02   2.936397E+02   4.497883E+02   4.668672E+02   6.918928E+01   8.028245E+01   8.949081E+01   2.106662E+02   7.793754E+01   9.053419E+01   1.020981E+02   7.770364E+01   2.007140E+02   1.260175E+02   4.144240E+01   2.467724E+01   1.960292E+01   1.703040E+01   3.341375E+01   5.502177E+01   3.398980E+01   1.219080E+02   1.123068E+02   8.200021E+01   9.909293E+01   3.584761E+01   1.875261E+01   1.175490E+01   3.985446E+01   3.730818E+01   3.544221E+01   6.310754E+01   4.171735E+01   7.120423E+01   1.087201E+02   6.389809E+01   6.247749E+01   5.153373E+01
   6.923129E+01   1.692858E+02   1.278447E+02   3.930068E+01   1.850361E+01   2.908757E+01   3.888449E+01   7.651362E+01   1.226790E+02   4.074403E+01   3.939086E+01   7.768883E+01   1.240153E+02   1.301117E+02   1.074508E+02   1.405872E+02   1.045481E+02   6.633028E+01   6.084388E+01   2.681828E+01   3.475918E+01   2.219440E+01   3.699587E+01   1.383339E+01   1.109094E+01   1.428010E+01   3.588219E+01   9.814724E+01   2.090787E+02   1.593057E+02   2.319086E+01   2.980064E+01   7.070206E+01   3.214936E+01   3.148424E+01   7.517335E+01   6.172701E+01   2.831909E+01   1.544928E+02   2.444525E+01   5.764214E+01   1.113542E+02   3.525633E+01   3.214288E+01   2.342196E+01   3.130800E+01   1.904100E+01   9.232316E+00   2.192788E+01   3.254190E+01   1.948198E+01   4.219290E+01   6.613622E+01   2.746066E+01   3.250760E+01   3.015837E+01   7.557666E+01   4.422575E+01   4.448103E+01   1.671144E+01   5.111298E+01   7.930245E+01   1.982113E+01   2.117718E+01   1.488794E+01   1.063623E+01   9.672936E+00   8.199767E+00   3.564770E+01   2.967574E+01   6.560976E+01   7.697402E+01   7.836601E+01   3.852690E+01   2.172894E+01   3.355242E+01   1.536472E+02   9.347096E+01   6.631030E+01   2.684993E+01   1.215364E+02   5.253872E+01   8.196888E+01   6.840192E+01   7.331608E+01   2.915201E+01   1.831978E+02   1.194797E+02   1.517717E+02   1.068326E+02   1.068326E+02   5.799229E+01   6.455253E+01   6.455253E+01   5.512399E+01   8.454530E+01   8.454530E+01   5.715876E+01   5.715876E+01   5.715876E+01   9.040185E+01   9.040185E+01   9.040185E+01   1.044962E+02   1.044962E+02   1.044962E+02   1.044962E+02   1.044962E+02   1.323155E+02   1.323155E+02   1.323155E+02   1.323155E+02   1.323155E+02   1.605027E+02   1.605027E+02   1.605027E+02   1.605027E+02   1.605027E+02   1.605027E+02   1.605027E+02   1.289814E+02   1.289814E+02   1.289814E+02   1.289814E+02   1.289814E+02   1.289814E+02   1.289814E+02   1.289814E+02   1.289814E+02   1.289814E+02   2.520068E+01   2.520068E+01   2.520068E+01   2.520068E+01   2.520068E+01   2.520068E+01   2.520068E+01   2.520068E+01   2.520068E+01   1.865594E+01   1.865594E+01   1.865594E+01   1.865594E+01   1.865594E+01   1.865594E+01   1.865594E+01   9.316240E+00   9.316240E+00   9.316240E+00   9.316240E+00   9.316240E+00   6.818253E+00   6.818253E+00   6.818253E+00   6.818253E+00   1.461095E+01   1.461095E+01   1.461095E+01   1.201775E+01   1.201775E+01   2.115217E+01   2.115217E+01   9.516851E+00   9.516851E+00   4.452177E+00   1.109176E+01   1.986764E+01   1.986764E+01   9.183557E+01   1.516732E+02   3.252165E+02   2.360311E+02   2.402001E+02   1.589171E+02   5.510212E+01   7.859376E+01   1.466637E+02   5.591445E+01   2.709236E+02   1.305266E+02   2.872378E+02   1.592282E+02   1.404020E+02   3.120195E+01   2.539561E+01   8.182042E+00   3.443092E+01   7.118562E+01   5.088117E+01   5.969005E+01   1.057692E+02   8.098374E+01   2.339342E+02   1.255367E+02   7.909181E+01   6.606316E+01   2.269817E+01   6.246579E+01   4.295374E+01   3.858929E+01   3.228361E+01   5.869878E+01   6.004874E+01   3.277753E+01   6.650327E+01   1.268078E+02   6.376787E+01
   7.764342E+01   3.701687E+02   3.129662E+02   9.105380E+01   2.818810E+01   1.415633E+01   3.114849E+01   9.010708E+01   1.214265E+02   3.536723E+01   6.194843E+01   1.254165E+02   2.331387E+02   7.023303E+01   7.427028E+01   2.192786E+02   2.092118E+02   6.838856E+01   1.210933E+02   5.484348E+01   5.115941E+01   1.227091E+01   1.699008E+01   1.453774E+01   2.019943E+01   4.298761E+01   2.008316E+02   1.271284E+02   1.509785E+02   1.568742E+02   2.377036E+01   4.252890E+01   5.290752E+01   4.489607E+01   7.343114E+01   1.020501E+02   4.751855E+01   3.987004E+01   5.602723E+01   2.828433E+01   1.895290E+01   1.070129E+02   2.406314E+01   1.322013E+01   4.478865E+01   1.637809E+01   3.987777E+01   2.379204E+01   3.114636E+01   4.094793E+01   1.524996E+01   3.400856E+01   6.308464E+01   3.379918E+01   5.118090E+01   2.770480E+01   6.773046E+01   6.234661E+01   3.185305E+01   2.929482E+01   4.555632E+01   7.258979E+01   7.827334E+01   2.968984E+01   1.037259E+01   4.621375E+00   5.783058E+00   1.047939E+01   4.088809E+01   3.945431E+01   1.288498E+02   2.478885E+01   4.164418E+01   2.131965E+01   1.482383E+01   3.823548E+01   6.335196E+01   3.698656E+01   6.755047E+01   3.190081E+01   1.152801E+02   6.531967E+01   5.328990E+01   1.170293E+02   9.426823E+01   4.505570E+01   1.367350E+02   6.167552E+01   1.401212E+02   8.233015E+01   8.233015E+01   2.311913E+01   6.337645E+01   6.337645E+01   5.592809E+01   1.175271E+02   1.175271E+02   4.896549E+01   4.896549E+01   4.896549E+01   8.782900E+01   8.782900E+01   8.782900E+01   1.845871E+02   1.845871E+02   1.845871E+02   1.845871E+02   1.845871E+02   1.563116E+02   1.563116E+02   1.563116E+02   1.563116E+02   1.563116E+02   1.424140E+02   1.424140E+02   1.424140E+02   1.424140E+02   1.424140E+02   1.424140E+02   1.424140E+02   9.751517E+01   9.751517E+01   9.751517E+01   9.751517E+01   9.751517E+01   9.751517E+01   9.751517E+01   9.751517E+01   9.751517E+01   9.751517E+01   1.600347E+01   1.600347E+01   1.600347E+01   1.600347E+01   1.600347E+01   1.600347E+01   1.600347E+01   1.600347E+01   1.600347E+01   1.907053E+01   1.907053E+01   1.907053E+01   1.907053E+01   1.907053E+01   1.907053E+01   1.907053E+01   7.326267E+00   7.326267E+00   7.326267E+00   7.326267E+00   7.326267E+00   5.619899E+00   5.619899E+00   5.619899E+00   5.619899E+00   8.523637E+00   8.523637E+00   8.523637E+00   6.887373E+00   6.887373E+00   1.709021E+01   1.709021E+01   7.181362E+00   7.181362E+00   9.418015E+00   1.278670E+01   1.833166E+01   1.833166E+01   1.884523E+02   1.282270E+02   6.691859E+02   3.131264E+02   4.045664E+02   1.696272E+02   1.550520E+02   1.423677E+02   9.969617E+01   6.278614E+01   1.704572E+02   1.870560E+02   2.380023E+02   5.480309E+02   8.160896E+01   4.213810E+01   2.664111E+01   1.292385E+01   1.118703E+01   2.226829E+01   3.154977E+01   8.405179E+01   1.387753E+02   2.068148E+02   2.097841E+02   8.144209E+01   5.281904E+01   5.530231E+01   2.981240E+01   4.155584E+01   1.651632E+01   2.090215E+01   2.971579E+01   1.172028E+02   8.616580E+01   4.812003E+01   8.966066E+01   1.313989E+02   1.083167E+02
   1.206496E+02   1.943539E+02   3.084368E+02   2.269445E+02   6.656686E+01   3.633892E+01   2.108014E+01   8.856652E+01   5.312142E+01   3.314285E+01   8.213596E+01   1.298497E+02   2.099774E+02   9.520084E+01   8.388835E+01   2.036959E+02   2.412375E+02   7.434215E+01   1.811881E+02   7.523687E+01   3.872132E+01   1.782429E+01   3.258546E+01   1.991389E+01   1.272964E+01   1.222812E+02   1.205355E+02   9.399657E+01   7.672086E+01   1.455329E+02   5.557379E+01   5.305933E+01   1.738442E+02   7.632147E+01   3.832607E+01   1.278702E+02   1.015611E+02   3.483698E+01   3.418810E+01   1.412356E+01   2.528189E+01   4.932930E+01   2.178700E+01   1.661109E+01   2.494192E+01   2.200729E+01   2.435635E+01   2.932051E+01   2.717746E+01   4.006804E+01   5.380448E+01   4.339639E+01   5.824620E+01   3.777307E+01   3.198403E+01   3.969517E+01   3.378590E+01   4.550203E+01   4.728396E+01   2.971380E+01   1.607804E+01   7.417622E+01   2.358496E+02   5.605483E+01   2.732648E+01   1.533590E+01   7.666499E+00   7.119072E+00   1.513574E+01   2.580372E+01   1.373427E+02   2.205947E+01   2.966444E+01   1.483950E+01   1.668634E+01   1.312137E+02   5.289684E+01   2.446542E+01   4.444077E+01   3.366765E+01   7.912035E+01   3.734605E+01   5.311160E+01   1.528149E+02   7.664384E+01   6.964548E+01   1.621790E+02   7.460177E+01   1.240145E+02   7.084007E+01   7.084007E+01   2.959014E+01   6.011641E+01   6.011641E+01   4.089346E+01   7.414490E+01   7.414490E+01   5.991363E+01   5.991363E+01   5.991363E+01   4.070298E+01   4.070298E+01   4.070298E+01   1.938282E+02   1.938282E+02   1.938282E+02   1.938282E+02   1.938282E+02   1.669585E+02   1.669585E+02   1.669585E+02   1.669585E+02   1.669585E+02   1.277983E+02   1.277983E+02   1.277983E+02   1.277983E+02   1.277983E+02   1.277983E+02   1.277983E+02   5.969253E+01   5.969253E+01   5.969253E+01   5.969253E+01   5.969253E+01   5.969253E+01   5.969253E+01   5.969253E+01   5.969253E+01   5.969253E+01   2.661719E+01   2.661719E+01   2.661719E+01   2.661719E+01   2.661719E+01   2.661719E+01   2.661719E+01   2.661719E+01   2.661719E+01   2.455684E+01   2.455684E+01   2.455684E+01   2.455684E+01   2.455684E+01   2.455684E+01   2.455684E+01   8.216106E+00   8.216106E+00   8.216106E+00   8.216106E+00   8.216106E+00   3.972151E+00   3.972151E+00   3.972151E+00   3.972151E+00   1.126923E+01   1.126923E+01   1.126923E+01   1.909740E+01   1.909740E+01   3.506271E+01   3.506271E+01   1.247362E+01   1.247362E+01   9.309904E+00   2.360615E+01   6.558081E+01   6.558081E+01   1.158866E+02   3.664382E+02   3.717380E+02   3.429011E+02   4.016852E+02   1.928266E+02   2.309223E+02   1.412544E+02   5.495834E+01   1.036663E+02   1.675949E+02   2.180719E+02   4.356607E+02   5.498634E+02   5.033607E+01   3.236875E+01   1.796317E+01   6.017707E+00   1.577344E+01   2.385814E+01   2.485005E+01   5.130012E+01   1.028307E+02   2.361340E+02   1.475544E+02   6.582515E+01   6.197987E+01   1.530589E+02   6.385152E+01   3.948847E+01   3.580674E+01   3.070456E+01   4.471286E+01   1.074269E+02   7.583688E+01   8.631247E+01   1.472949E+02   1.018211E+02   1.035561E+02
   1.348854E+02   1.480616E+02   2.080102E+02   1.106992E+02   5.199119E+01   5.042907E+01   6.449382E+01   9.739708E+01   7.084296E+01   5.887186E+01   5.278416E+01   1.928317E+02   1.727710E+02   7.913389E+01   9.021751E+01   1.541271E+02   1.512156E+02   7.727309E+01   2.127016E+02   2.410088E+02   9.310149E+01   4.504765E+01   3.539756E+01   3.905532E+01   1.857275E+01   1.487215E+02   1.586386E+02   1.024089E+02   1.041920E+02   9.920061E+01   5.476645E+01   7.721176E+01   8.804391E+01   1.118196E+02   7.460647E+01   7.525346E+01   1.112118E+02   4.801893E+01   2.373694E+01   3.000268E+01   6.458042E+01   4.819134E+01   3.457918E+01   2.808848E+01   2.909130E+01   3.097648E+01   7.941252E+01   3.425763E+01   2.292499E+01   2.637281E+01   5.123251E+01   7.503906E+01   5.643542E+01   2.207734E+01   4.531582E+01   2.806432E+01   4.301784E+01   5.786792E+01   3.600140E+01   3.906866E+01   4.492004E+01   1.138433E+02   1.324626E+02   7.056647E+01   2.015108E+01   1.804063E+01   3.140219E+01   1.016732E+01   3.436311E+01   2.801976E+01   9.499350E+01   2.205462E+01   4.039831E+01   1.740904E+01   1.674105E+01   1.967299E+02   5.141530E+01   2.821679E+01   4.858553E+01   4.390209E+01   5.736704E+01   2.547597E+01   5.386185E+01   6.919548E+01   6.654375E+01   7.822469E+01   7.112700E+01   1.201200E+02   1.219953E+02   5.529115E+01   5.529115E+01   3.184196E+01   8.878529E+01   8.878529E+01   3.798343E+01   6.016587E+01   6.016587E+01   7.576581E+01   7.576581E+01   7.576581E+01   8.266382E+01   8.266382E+01   8.266382E+01   8.540755E+01   8.540755E+01   8.540755E+01   8.540755E+01   8.540755E+01   7.059844E+01   7.059844E+01   7.059844E+01   7.059844E+01   7.059844E+01   6.231577E+01   6.231577E+01   6.231577E+01   6.231577E+01   6.231577E+01   6.231577E+01   6.231577E+01   2.743839E+01   2.743839E+01   2.743839E+01   2.743839E+01   2.743839E+01   2.743839E+01   2.743839E+01   2.743839E+01   2.743839E+01   2.743839E+01   7.336618E+00   7.336618E+00   7.336618E+00   7.336618E+00   7.336618E+00   7.336618E+00   7.336618E+00   7.336618E+00   7.336618E+00   7.272451E+00   7.272451E+00   7.272451E+00   7.272451E+00   7.272451E+00   7.272451E+00   7.272451E+00   4.001019E+00   4.001019E+00   4.001019E+00   4.001019E+00   4.001019E+00   5.304816E+00   5.304816E+00   5.304816E+00   5.304816E+00   2.107338E+01   2.107338E+01   2.107338E+01   2.230768E+01   2.230768E+01   2.427743E+01   2.427743E+01   1.366030E+01   1.366030E+01   1.107043E+01   5.612132E+01   7.589026E+01   7.589026E+01   4.982038E+01   2.889843E+02   1.544380E+02   2.891152E+02   4.951026E+02   3.442809E+02   9.429811E+01   9.355540E+01   6.634746E+01   9.333131E+01   1.897610E+02   6.177211E+02   8.385450E+02   9.300721E+02   2.012523E+02   3.888916E+01   2.480239E+01   1.571161E+01   1.588717E+01   2.601553E+01   7.284048E+01   7.766988E+01   1.308219E+02   1.760984E+02   1.054918E+02   5.802137E+01   8.325752E+01   6.149554E+01   6.623540E+01   6.262809E+01   3.903286E+01   5.455672E+01   3.105354E+01   4.302962E+01   8.986360E+01   5.866516E+01   1.395269E+02   1.840074E+02   1.919736E+02