MODPATH_TIMESERIES_FILE         7         2
    2   0.0000000000E+00  0.0000000000E+00  0.0000000000E+00  0.0000000000E+00
END HEADER
       0       1  0.0000000000E+00         1    1         1     16483  0.4166666667E-01  0.4166666667E-01  0.5000000000E+00  0.9995360867E+03  0.4992921557E+03 -0.7077044725E+01         1
       0       1  0.0000000000E+00         2    1         2     16483  0.1250000000E+00  0.4166666667E-01  0.5000000000E+00  0.9996194200E+03  0.4992921557E+03 -0.7077044725E+01         1
       0       1  0.0000000000E+00         3    1         3     16483  0.2083333333E+00  0.4166666667E-01  0.5000000000E+00  0.9997027533E+03  0.4992921557E+03 -0.7077044725E+01         1
       0       1  0.0000000000E+00         4    1         4     16483  0.2916666667E+00  0.4166666667E-01  0.5000000000E+00  0.9997860867E+03  0.4992921557E+03 -0.7077044725E+01         1
       0       1  0.0000000000E+00         5    1         5     16483  0.3750000000E+00  0.4166666667E-01  0.5000000000E+00  0.9998694200E+03  0.4992921557E+03 -0.7077044725E+01         1
       0       1  0.0000000000E+00         6    1         6     16483  0.4583333333E+00  0.4166666667E-01  0.5000000000E+00  0.9999527533E+03  0.4992921557E+03 -0.7077044725E+01         1
       0       1  0.0000000000E+00         7    1         7     16483  0.5416666667E+00  0.4166666667E-01  0.5000000000E+00  0.1000036087E+04  0.4992921557E+03 -0.7077044725E+01         1
       0       1  0.0000000000E+00         8    1         8     16483  0.6250000000E+00  0.4166666667E-01  0.5000000000E+00  0.1000119420E+04  0.4992921557E+03 -0.7077044725E+01         1
       0       1  0.0000000000E+00         9    1         9     16483  0.7083333333E+00  0.4166666667E-01  0.5000000000E+00  0.1000202753E+04  0.4992921557E+03 -0.7077044725E+01         1
       0       1  0.0000000000E+00        10    1        10     16483  0.7916666667E+00  0.4166666667E-01  0.5000000000E+00  0.1000286087E+04  0.4992921557E+03 -0.7077044725E+01         1
       0       1  0.0000000000E+00        11    1        11     16483  0.8750000000E+00  0.4166666667E-01  0.5000000000E+00  0.1000369420E+04  0.4992921557E+03 -0.7077044725E+01         1
       0       1  0.0000000000E+00        12    1        12     16483  0.9583333333E+00  0.4166666667E-01  0.5000000000E+00  0.1000452753E+04  0.4992921557E+03 -0.7077044725E+01         1
       0       1  0.0000000000E+00        13    1        13     16483  0.4166666667E-01  0.1250000000E+00  0.5000000000E+00  0.9995360867E+03  0.4993754890E+03 -0.7077044725E+01         1
       0       1  0.0000000000E+00        14    1        14     16483  0.1250000000E+00  0.1250000000E+00  0.5000000000E+00  0.9996194200E+03  0.4993754890E+03 -0.7077044725E+01         1
       0       1  0.0000000000E+00        15    1        15     16483  0.2083333333E+00  0.1250000000E+00  0.5000000000E+00  0.9997027533E+03  0.4993754890E+03 -0.7077044725E+01         1
       0       1  0.0000000000E+00        16    1        16     16483  0.2916666667E+00  0.1250000000E+00  0.5000000000E+00  0.9997860867E+03  0.4993754890E+03 -0.7077044725E+01         1
       0       1  0.0000000000E+00        17    1        17     16483  0.3750000000E+00  0.1250000000E+00  0.5000000000E+00  0.9998694200E+03  0.4993754890E+03 -0.7077044725E+01         1
       0       1  0.0000000000E+00        18    1        18     16483  0.4583333333E+00  0.1250000000E+00  0.5000000000E+00  0.9999527533E+03  0.4993754890E+03 -0.7077044725E+01         1
       0       1  0.0000000000E+00        19    1        19     16483  0.5416666667E+00  0.1250000000E+00  0.5000000000E+00  0.1000036087E+04  0.4993754890E+03 -0.7077044725E+01         1
       0       1  0.0000000000E+00        20    1        20     16483  0.6250000000E+00  0.1250000000E+00  0.5000000000E+00  0.1000119420E+04  0.4993754890E+03 -0.7077044725E+01         1
       0       1  0.0000000000E+00        21    1        21     16483  0.7083333333E+00  0.1250000000E+00  0.5000000000E+00  0.1000202753E+04  0.4993754890E+03 -0.7077044725E+01         1
       0       1  0.0000000000E+00        22    1        22     16483  0.7916666667E+00  0.1250000000E+00  0.5000000000E+00  0.1000286087E+04  0.4993754890E+03 -0.7077044725E+01         1
       0       1  0.0000000000E+00        23    1        23     16483  0.8750000000E+00  0.1250000000E+00  0.5000000000E+00  0.1000369420E+04  0.4993754890E+03 -0.7077044725E+01         1
       0       1  0.0000000000E+00        24    1        24     16483  0.9583333333E+00  0.1250000000E+00  0.5000000000E+00  0.1000452753E+04  0.4993754890E+03 -0.7077044725E+01         1
       0       1  0.0000000000E+00        25    1        25     16483  0.4166666667E-01  0.2083333333E+00  0.5000000000E+00  0.9995360867E+03  0.4994588223E+03 -0.7077044725E+01         1
       0       1  0.0000000000E+00        26    1        26     16483  0.1250000000E+00  0.2083333333E+00  0.5000000000E+00  0.9996194200E+03  0.4994588223E+03 -0.7077044725E+01         1
       0       1  0.0000000000E+00        27    1        27     16483  0.2083333333E+00  0.2083333333E+00  0.5000000000E+00  0.9997027533E+03  0.4994588223E+03 -0.7077044725E+01         1
       0       1  0.0000000000E+00        28    1        28     16483  0.2916666667E+00  0.2083333333E+00  0.5000000000E+00  0.9997860867E+03  0.4994588223E+03 -0.7077044725E+01         1
       0       1  0.0000000000E+00        29    1        29     16483  0.3750000000E+00  0.2083333333E+00  0.5000000000E+00  0.9998694200E+03  0.4994588223E+03 -0.7077044725E+01         1
       0       1  0.0000000000E+00        30    1        30     16483  0.4583333333E+00  0.2083333333E+00  0.5000000000E+00  0.9999527533E+03  0.4994588223E+03 -0.7077044725E+01         1
       0       1  0.0000000000E+00        31    1        31     16483  0.5416666667E+00  0.2083333333E+00  0.5000000000E+00  0.1000036087E+04  0.4994588223E+03 -0.7077044725E+01         1
       0       1  0.0000000000E+00        32    1        32     16483  0.6250000000E+00  0.2083333333E+00  0.5000000000E+00  0.1000119420E+04  0.4994588223E+03 -0.7077044725E+01         1
       0       1  0.0000000000E+00        33    1        33     16483  0.7083333333E+00  0.2083333333E+00  0.5000000000E+00  0.1000202753E+04  0.4994588223E+03 -0.7077044725E+01         1
       0       1  0.0000000000E+00        34    1        34     16483  0.7916666667E+00  0.2083333333E+00  0.5000000000E+00  0.1000286087E+04  0.4994588223E+03 -0.7077044725E+01         1
       0       1  0.0000000000E+00        35    1        35     16483  0.8750000000E+00  0.2083333333E+00  0.5000000000E+00  0.1000369420E+04  0.4994588223E+03 -0.7077044725E+01         1
       0       1  0.0000000000E+00        36    1        36     16483  0.9583333333E+00  0.2083333333E+00  0.5000000000E+00  0.1000452753E+04  0.4994588223E+03 -0.7077044725E+01         1
       0       1  0.0000000000E+00        37    1        37     16483  0.4166666667E-01  0.2916666667E+00  0.5000000000E+00  0.9995360867E+03  0.4995421557E+03 -0.7077044725E+01         1
       0       1  0.0000000000E+00        38    1        38     16483  0.1250000000E+00  0.2916666667E+00  0.5000000000E+00  0.9996194200E+03  0.4995421557E+03 -0.7077044725E+01         1
       0       1  0.0000000000E+00        39    1        39     16483  0.2083333333E+00  0.2916666667E+00  0.5000000000E+00  0.9997027533E+03  0.4995421557E+03 -0.7077044725E+01         1
       0       1  0.0000000000E+00        40    1        40     16483  0.2916666667E+00  0.2916666667E+00  0.5000000000E+00  0.9997860867E+03  0.4995421557E+03 -0.7077044725E+01         1
       0       1  0.0000000000E+00        41    1        41     16483  0.3750000000E+00  0.2916666667E+00  0.5000000000E+00  0.9998694200E+03  0.4995421557E+03 -0.7077044725E+01         1
       0       1  0.0000000000E+00        42    1        42     16483  0.4583333333E+00  0.2916666667E+00  0.5000000000E+00  0.9999527533E+03  0.4995421557E+03 -0.7077044725E+01         1
       0       1  0.0000000000E+00        43    1        43     16483  0.5416666667E+00  0.2916666667E+00  0.5000000000E+00  0.1000036087E+04  0.4995421557E+03 -0.7077044725E+01         1
       0       1  0.0000000000E+00        44    1        44     16483  0.6250000000E+00  0.2916666667E+00  0.5000000000E+00  0.1000119420E+04  0.4995421557E+03 -0.7077044725E+01         1
       0       1  0.0000000000E+00        45    1        45     16483  0.7083333333E+00  0.2916666667E+00  0.5000000000E+00  0.1000202753E+04  0.4995421557E+03 -0.7077044725E+01         1
       0       1  0.0000000000E+00        46    1        46     16483  0.7916666667E+00  0.2916666667E+00  0.5000000000E+00  0.1000286087E+04  0.4995421557E+03 -0.7077044725E+01         1
       0       1  0.0000000000E+00        47    1        47     16483  0.8750000000E+00  0.2916666667E+00  0.5000000000E+00  0.1000369420E+04  0.4995421557E+03 -0.7077044725E+01         1
       0       1  0.0000000000E+00        48    1        48     16483  0.9583333333E+00  0.2916666667E+00  0.5000000000E+00  0.1000452753E+04  0.4995421557E+03 -0.7077044725E+01         1
       0       1  0.0000000000E+00        49    1        49     16483  0.4166666667E-01  0.3750000000E+00  0.5000000000E+00  0.9995360867E+03  0.4996254890E+03 -0.7077044725E+01         1
       0       1  0.0000000000E+00        50    1        50     16483  0.1250000000E+00  0.3750000000E+00  0.5000000000E+00  0.9996194200E+03  0.4996254890E+03 -0.7077044725E+01         1
       0       1  0.0000000000E+00        51    1        51     16483  0.2083333333E+00  0.3750000000E+00  0.5000000000E+00  0.9997027533E+03  0.4996254890E+03 -0.7077044725E+01         1
       0       1  0.0000000000E+00        52    1        52     16483  0.2916666667E+00  0.3750000000E+00  0.5000000000E+00  0.9997860867E+03  0.4996254890E+03 -0.7077044725E+01         1
       0       1  0.0000000000E+00        53    1        53     16483  0.3750000000E+00  0.3750000000E+00  0.5000000000E+00  0.9998694200E+03  0.4996254890E+03 -0.7077044725E+01         1
       0       1  0.0000000000E+00        54    1        54     16483  0.4583333333E+00  0.3750000000E+00  0.5000000000E+00  0.9999527533E+03  0.4996254890E+03 -0.7077044725E+01         1
       0       1  0.0000000000E+00        55    1        55     16483  0.5416666667E+00  0.3750000000E+00  0.5000000000E+00  0.1000036087E+04  0.4996254890E+03 -0.7077044725E+01         1
       0       1  0.0000000000E+00        56    1        56     16483  0.6250000000E+00  0.3750000000E+00  0.5000000000E+00  0.1000119420E+04  0.4996254890E+03 -0.7077044725E+01         1
       0       1  0.0000000000E+00        57    1        57     16483  0.7083333333E+00  0.3750000000E+00  0.5000000000E+00  0.1000202753E+04  0.4996254890E+03 -0.7077044725E+01         1
       0       1  0.0000000000E+00        58    1        58     16483  0.7916666667E+00  0.3750000000E+00  0.5000000000E+00  0.1000286087E+04  0.4996254890E+03 -0.7077044725E+01         1
       0       1  0.0000000000E+00        59    1        59     16483  0.8750000000E+00  0.3750000000E+00  0.5000000000E+00  0.1000369420E+04  0.4996254890E+03 -0.7077044725E+01         1
       0       1  0.0000000000E+00        60    1        60     16483  0.9583333333E+00  0.3750000000E+00  0.5000000000E+00  0.1000452753E+04  0.4996254890E+03 -0.7077044725E+01         1
       0       1  0.0000000000E+00        61    1        61     16483  0.4166666667E-01  0.4583333333E+00  0.5000000000E+00  0.9995360867E+03  0.4997088223E+03 -0.7077044725E+01         1
       0       1  0.0000000000E+00        62    1        62     16483  0.1250000000E+00  0.4583333333E+00  0.5000000000E+00  0.9996194200E+03  0.4997088223E+03 -0.7077044725E+01         1
       0       1  0.0000000000E+00        63    1        63     16483  0.2083333333E+00  0.4583333333E+00  0.5000000000E+00  0.9997027533E+03  0.4997088223E+03 -0.7077044725E+01         1
       0       1  0.0000000000E+00        64    1        64     16483  0.2916666667E+00  0.4583333333E+00  0.5000000000E+00  0.9997860867E+03  0.4997088223E+03 -0.7077044725E+01         1
       0       1  0.0000000000E+00        65    1        65     16483  0.3750000000E+00  0.4583333333E+00  0.5000000000E+00  0.9998694200E+03  0.4997088223E+03 -0.7077044725E+01         1
       0       1  0.0000000000E+00        66    1        66     16483  0.4583333333E+00  0.4583333333E+00  0.5000000000E+00  0.9999527533E+03  0.4997088223E+03 -0.7077044725E+01         1
       0       1  0.0000000000E+00        67    1        67     16483  0.5416666667E+00  0.4583333333E+00  0.5000000000E+00  0.1000036087E+04  0.4997088223E+03 -0.7077044725E+01         1
       0       1  0.0000000000E+00        68    1        68     16483  0.6250000000E+00  0.4583333333E+00  0.5000000000E+00  0.1000119420E+04  0.4997088223E+03 -0.7077044725E+01         1
       0       1  0.0000000000E+00        69    1        69     16483  0.7083333333E+00  0.4583333333E+00  0.5000000000E+00  0.1000202753E+04  0.4997088223E+03 -0.7077044725E+01         1
       0       1  0.0000000000E+00        70    1        70     16483  0.7916666667E+00  0.4583333333E+00  0.5000000000E+00  0.1000286087E+04  0.4997088223E+03 -0.7077044725E+01         1
       0       1  0.0000000000E+00        71    1        71     16483  0.8750000000E+00  0.4583333333E+00  0.5000000000E+00  0.1000369420E+04  0.4997088223E+03 -0.7077044725E+01         1
       0       1  0.0000000000E+00        72    1        72     16483  0.9583333333E+00  0.4583333333E+00  0.5000000000E+00  0.1000452753E+04  0.4997088223E+03 -0.7077044725E+01         1
       0       1  0.0000000000E+00        73    1        73     16483  0.4166666667E-01  0.5416666667E+00  0.5000000000E+00  0.9995360867E+03  0.4997921557E+03 -0.7077044725E+01         1
       0       1  0.0000000000E+00        74    1        74     16483  0.1250000000E+00  0.5416666667E+00  0.5000000000E+00  0.9996194200E+03  0.4997921557E+03 -0.7077044725E+01         1
       0       1  0.0000000000E+00        75    1        75     16483  0.2083333333E+00  0.5416666667E+00  0.5000000000E+00  0.9997027533E+03  0.4997921557E+03 -0.7077044725E+01         1
       0       1  0.0000000000E+00        76    1        76     16483  0.2916666667E+00  0.5416666667E+00  0.5000000000E+00  0.9997860867E+03  0.4997921557E+03 -0.7077044725E+01         1
       0       1  0.0000000000E+00        77    1        77     16483  0.3750000000E+00  0.5416666667E+00  0.5000000000E+00  0.9998694200E+03  0.4997921557E+03 -0.7077044725E+01         1
       0       1  0.0000000000E+00        78    1        78     16483  0.4583333333E+00  0.5416666667E+00  0.5000000000E+00  0.9999527533E+03  0.4997921557E+03 -0.7077044725E+01         1
       0       1  0.0000000000E+00        79    1        79     16483  0.5416666667E+00  0.5416666667E+00  0.5000000000E+00  0.1000036087E+04  0.4997921557E+03 -0.7077044725E+01         1
       0       1  0.0000000000E+00        80    1        80     16483  0.6250000000E+00  0.5416666667E+00  0.5000000000E+00  0.1000119420E+04  0.4997921557E+03 -0.7077044725E+01         1
       0       1  0.0000000000E+00        81    1        81     16483  0.7083333333E+00  0.5416666667E+00  0.5000000000E+00  0.1000202753E+04  0.4997921557E+03 -0.7077044725E+01         1
       0       1  0.0000000000E+00        82    1        82     16483  0.7916666667E+00  0.5416666667E+00  0.5000000000E+00  0.1000286087E+04  0.4997921557E+03 -0.7077044725E+01         1
       0       1  0.0000000000E+00        83    1        83     16483  0.8750000000E+00  0.5416666667E+00  0.5000000000E+00  0.1000369420E+04  0.4997921557E+03 -0.7077044725E+01         1
       0       1  0.0000000000E+00        84    1        84     16483  0.9583333333E+00  0.5416666667E+00  0.5000000000E+00  0.1000452753E+04  0.4997921557E+03 -0.7077044725E+01         1
       0       1  0.0000000000E+00        85    1        85     16483  0.4166666667E-01  0.6250000000E+00  0.5000000000E+00  0.9995360867E+03  0.4998754890E+03 -0.7077044725E+01         1
       0       1  0.0000000000E+00        86    1        86     16483  0.1250000000E+00  0.6250000000E+00  0.5000000000E+00  0.9996194200E+03  0.4998754890E+03 -0.7077044725E+01         1
       0       1  0.0000000000E+00        87    1        87     16483  0.2083333333E+00  0.6250000000E+00  0.5000000000E+00  0.9997027533E+03  0.4998754890E+03 -0.7077044725E+01         1
       0       1  0.0000000000E+00        88    1        88     16483  0.2916666667E+00  0.6250000000E+00  0.5000000000E+00  0.9997860867E+03  0.4998754890E+03 -0.7077044725E+01         1
       0       1  0.0000000000E+00        89    1        89     16483  0.3750000000E+00  0.6250000000E+00  0.5000000000E+00  0.9998694200E+03  0.4998754890E+03 -0.7077044725E+01         1
       0       1  0.0000000000E+00        90    1        90     16483  0.4583333333E+00  0.6250000000E+00  0.5000000000E+00  0.9999527533E+03  0.4998754890E+03 -0.7077044725E+01         1
       0       1  0.0000000000E+00        91    1        91     16483  0.5416666667E+00  0.6250000000E+00  0.5000000000E+00  0.1000036087E+04  0.4998754890E+03 -0.7077044725E+01         1
       0       1  0.0000000000E+00        92    1        92     16483  0.6250000000E+00  0.6250000000E+00  0.5000000000E+00  0.1000119420E+04  0.4998754890E+03 -0.7077044725E+01         1
       0       1  0.0000000000E+00        93    1        93     16483  0.7083333333E+00  0.6250000000E+00  0.5000000000E+00  0.1000202753E+04  0.4998754890E+03 -0.7077044725E+01         1
       0       1  0.0000000000E+00        94    1        94     16483  0.7916666667E+00  0.6250000000E+00  0.5000000000E+00  0.1000286087E+04  0.4998754890E+03 -0.7077044725E+01         1
       0       1  0.0000000000E+00        95    1        95     16483  0.8750000000E+00  0.6250000000E+00  0.5000000000E+00  0.1000369420E+04  0.4998754890E+03 -0.7077044725E+01         1
       0       1  0.0000000000E+00        96    1        96     16483  0.9583333333E+00  0.6250000000E+00  0.5000000000E+00  0.1000452753E+04  0.4998754890E+03 -0.7077044725E+01         1
       0       1  0.0000000000E+00        97    1        97     16483  0.4166666667E-01  0.7083333333E+00  0.5000000000E+00  0.9995360867E+03  0.4999588223E+03 -0.7077044725E+01         1
       0       1  0.0000000000E+00        98    1        98     16483  0.1250000000E+00  0.7083333333E+00  0.5000000000E+00  0.9996194200E+03  0.4999588223E+03 -0.7077044725E+01         1
       0       1  0.0000000000E+00        99    1        99     16483  0.2083333333E+00  0.7083333333E+00  0.5000000000E+00  0.9997027533E+03  0.4999588223E+03 -0.7077044725E+01         1
       0       1  0.0000000000E+00       100    1       100     16483  0.2916666667E+00  0.7083333333E+00  0.5000000000E+00  0.9997860867E+03  0.4999588223E+03 -0.7077044725E+01         1
       0       1  0.0000000000E+00       101    1       101     16483  0.3750000000E+00  0.7083333333E+00  0.5000000000E+00  0.9998694200E+03  0.4999588223E+03 -0.7077044725E+01         1
       0       1  0.0000000000E+00       102    1       102     16483  0.4583333333E+00  0.7083333333E+00  0.5000000000E+00  0.9999527533E+03  0.4999588223E+03 -0.7077044725E+01         1
       0       1  0.0000000000E+00       103    1       103     16483  0.5416666667E+00  0.7083333333E+00  0.5000000000E+00  0.1000036087E+04  0.4999588223E+03 -0.7077044725E+01         1
       0       1  0.0000000000E+00       104    1       104     16483  0.6250000000E+00  0.7083333333E+00  0.5000000000E+00  0.1000119420E+04  0.4999588223E+03 -0.7077044725E+01         1
       0       1  0.0000000000E+00       105    1       105     16483  0.7083333333E+00  0.7083333333E+00  0.5000000000E+00  0.1000202753E+04  0.4999588223E+03 -0.7077044725E+01         1
       0       1  0.0000000000E+00       106    1       106     16483  0.7916666667E+00  0.7083333333E+00  0.5000000000E+00  0.1000286087E+04  0.4999588223E+03 -0.7077044725E+01         1
       0       1  0.0000000000E+00       107    1       107     16483  0.8750000000E+00  0.7083333333E+00  0.5000000000E+00  0.1000369420E+04  0.4999588223E+03 -0.7077044725E+01         1
       0       1  0.0000000000E+00       108    1       108     16483  0.9583333333E+00  0.7083333333E+00  0.5000000000E+00  0.1000452753E+04  0.4999588223E+03 -0.7077044725E+01         1
       0       1  0.0000000000E+00       109    1       109     16483  0.4166666667E-01  0.7916666667E+00  0.5000000000E+00  0.9995360867E+03  0.5000421557E+03 -0.7077044725E+01         1
       0       1  0.0000000000E+00       110    1       110     16483  0.1250000000E+00  0.7916666667E+00  0.5000000000E+00  0.9996194200E+03  0.5000421557E+03 -0.7077044725E+01         1
       0       1  0.0000000000E+00       111    1       111     16483  0.2083333333E+00  0.7916666667E+00  0.5000000000E+00  0.9997027533E+03  0.5000421557E+03 -0.7077044725E+01         1
       0       1  0.0000000000E+00       112    1       112     16483  0.2916666667E+00  0.7916666667E+00  0.5000000000E+00  0.9997860867E+03  0.5000421557E+03 -0.7077044725E+01         1
       0       1  0.0000000000E+00       113    1       113     16483  0.3750000000E+00  0.7916666667E+00  0.5000000000E+00  0.9998694200E+03  0.5000421557E+03 -0.7077044725E+01         1
       0       1  0.0000000000E+00       114    1       114     16483  0.4583333333E+00  0.7916666667E+00  0.5000000000E+00  0.9999527533E+03  0.5000421557E+03 -0.7077044725E+01         1
       0       1  0.0000000000E+00       115    1       115     16483  0.5416666667E+00  0.7916666667E+00  0.5000000000E+00  0.1000036087E+04  0.5000421557E+03 -0.7077044725E+01         1
       0       1  0.0000000000E+00       116    1       116     16483  0.6250000000E+00  0.7916666667E+00  0.5000000000E+00  0.1000119420E+04  0.5000421557E+03 -0.7077044725E+01         1
       0       1  0.0000000000E+00       117    1       117     16483  0.7083333333E+00  0.7916666667E+00  0.5000000000E+00  0.1000202753E+04  0.5000421557E+03 -0.7077044725E+01         1
       0       1  0.0000000000E+00       118    1       118     16483  0.7916666667E+00  0.7916666667E+00  0.5000000000E+00  0.1000286087E+04  0.5000421557E+03 -0.7077044725E+01         1
       0       1  0.0000000000E+00       119    1       119     16483  0.8750000000E+00  0.7916666667E+00  0.5000000000E+00  0.1000369420E+04  0.5000421557E+03 -0.7077044725E+01         1
       0       1  0.0000000000E+00       120    1       120     16483  0.9583333333E+00  0.7916666667E+00  0.5000000000E+00  0.1000452753E+04  0.5000421557E+03 -0.7077044725E+01         1
       0       1  0.0000000000E+00       121    1       121     16483  0.4166666667E-01  0.8750000000E+00  0.5000000000E+00  0.9995360867E+03  0.5001254890E+03 -0.7077044725E+01         1
       0       1  0.0000000000E+00       122    1       122     16483  0.1250000000E+00  0.8750000000E+00  0.5000000000E+00  0.9996194200E+03  0.5001254890E+03 -0.7077044725E+01         1
       0       1  0.0000000000E+00       123    1       123     16483  0.2083333333E+00  0.8750000000E+00  0.5000000000E+00  0.9997027533E+03  0.5001254890E+03 -0.7077044725E+01         1
       0       1  0.0000000000E+00       124    1       124     16483  0.2916666667E+00  0.8750000000E+00  0.5000000000E+00  0.9997860867E+03  0.5001254890E+03 -0.7077044725E+01         1
       0       1  0.0000000000E+00       125    1       125     16483  0.3750000000E+00  0.8750000000E+00  0.5000000000E+00  0.9998694200E+03  0.5001254890E+03 -0.7077044725E+01         1
       0       1  0.0000000000E+00       126    1       126     16483  0.4583333333E+00  0.8750000000E+00  0.5000000000E+00  0.9999527533E+03  0.5001254890E+03 -0.7077044725E+01         1
       0       1  0.0000000000E+00       127    1       127     16483  0.5416666667E+00  0.8750000000E+00  0.5000000000E+00  0.1000036087E+04  0.5001254890E+03 -0.7077044725E+01         1
       0       1  0.0000000000E+00       128    1       128     16483  0.6250000000E+00  0.8750000000E+00  0.5000000000E+00  0.1000119420E+04  0.5001254890E+03 -0.7077044725E+01         1
       0       1  0.0000000000E+00       129    1       129     16483  0.7083333333E+00  0.8750000000E+00  0.5000000000E+00  0.1000202753E+04  0.5001254890E+03 -0.7077044725E+01         1
       0       1  0.0000000000E+00       130    1       130     16483  0.7916666667E+00  0.8750000000E+00  0.5000000000E+00  0.1000286087E+04  0.5001254890E+03 -0.7077044725E+01         1
       0       1  0.0000000000E+00       131    1       131     16483  0.8750000000E+00  0.8750000000E+00  0.5000000000E+00  0.1000369420E+04  0.5001254890E+03 -0.7077044725E+01         1
       0       1  0.0000000000E+00       132    1       132     16483  0.9583333333E+00  0.8750000000E+00  0.5000000000E+00  0.1000452753E+04  0.5001254890E+03 -0.7077044725E+01         1
       0       1  0.0000000000E+00       133    1       133     16483  0.4166666667E-01  0.9583333333E+00  0.5000000000E+00  0.9995360867E+03  0.5002088223E+03 -0.7077044725E+01         1
       0       1  0.0000000000E+00       134    1       134     16483  0.1250000000E+00  0.9583333333E+00  0.5000000000E+00  0.9996194200E+03  0.5002088223E+03 -0.7077044725E+01         1
       0       1  0.0000000000E+00       135    1       135     16483  0.2083333333E+00  0.9583333333E+00  0.5000000000E+00  0.9997027533E+03  0.5002088223E+03 -0.7077044725E+01         1
       0       1  0.0000000000E+00       136    1       136     16483  0.2916666667E+00  0.9583333333E+00  0.5000000000E+00  0.9997860867E+03  0.5002088223E+03 -0.7077044725E+01         1
       0       1  0.0000000000E+00       137    1       137     16483  0.3750000000E+00  0.9583333333E+00  0.5000000000E+00  0.9998694200E+03  0.5002088223E+03 -0.7077044725E+01         1
       0       1  0.0000000000E+00       138    1       138     16483  0.4583333333E+00  0.9583333333E+00  0.5000000000E+00  0.9999527533E+03  0.5002088223E+03 -0.7077044725E+01         1
       0       1  0.0000000000E+00       139    1       139     16483  0.5416666667E+00  0.9583333333E+00  0.5000000000E+00  0.1000036087E+04  0.5002088223E+03 -0.7077044725E+01         1
       0       1  0.0000000000E+00       140    1       140     16483  0.6250000000E+00  0.9583333333E+00  0.5000000000E+00  0.1000119420E+04  0.5002088223E+03 -0.7077044725E+01         1
       0       1  0.0000000000E+00       141    1       141     16483  0.7083333333E+00  0.9583333333E+00  0.5000000000E+00  0.1000202753E+04  0.5002088223E+03 -0.7077044725E+01         1
       0       1  0.0000000000E+00       142    1       142     16483  0.7916666667E+00  0.9583333333E+00  0.5000000000E+00  0.1000286087E+04  0.5002088223E+03 -0.7077044725E+01         1
       0       1  0.0000000000E+00       143    1       143     16483  0.8750000000E+00  0.9583333333E+00  0.5000000000E+00  0.1000369420E+04  0.5002088223E+03 -0.7077044725E+01         1
       0       1  0.0000000000E+00       144    1       144     16483  0.9583333333E+00  0.9583333333E+00  0.5000000000E+00  0.1000452753E+04  0.5002088223E+03 -0.7077044725E+01         1
       1       1  0.3000000000E+00         1    1         1     17720  0.3964057464E+00  0.4022649342E+00  0.5000000000E+00  0.9948908257E+03  0.4936527539E+03 -0.6800230145E+01         1
       1       1  0.3000000000E+00         2    1         2     17928  0.3377648126E+00  0.6092734529E+00  0.5000000000E+00  0.9958321848E+03  0.4928597625E+03 -0.6796930432E+01         1
       1       1  0.3000000000E+00         3    1         3     17929  0.3897727669E+00  0.1727174710E-01  0.5000000000E+00  0.9968841928E+03  0.4922677607E+03 -0.6800710082E+01         1
       1       1  0.3000000000E+00         4    1         4     18137  0.5437357269E+00  0.6131591625E+00  0.5000000000E+00  0.9980381557E+03  0.4918636482E+03 -0.6794831038E+01         1
       1       1  0.3000000000E+00         5    1         5     18138  0.7619879921E+00  0.3879417365E+00  0.5000000000E+00  0.9992564080E+03  0.4916384307E+03 -0.6796666503E+01         1
       1       1  0.3000000000E+00         6    1         6     18140  0.4833296986E-01  0.2928188520E+00  0.5000000000E+00  0.1000542753E+04  0.4915433079E+03 -0.6797628045E+01         1
       1       1  0.3000000000E+00         7    1         7     18141  0.3137167728E+00  0.2564529313E+00  0.5000000000E+00  0.1001808137E+04  0.4915069419E+03 -0.6796385288E+01         1
       1       1  0.3000000000E+00         8    1         8     18142  0.5364133841E+00  0.6468661265E+00  0.5000000000E+00  0.1003030833E+04  0.4918973551E+03 -0.6794020057E+01         1
       1       1  0.3000000000E+00         9    1         9     17936  0.6639279755E+00  0.1850977678E+00  0.5000000000E+00  0.1004158348E+04  0.4924355868E+03 -0.6797202110E+01         1
       1       1  0.3000000000E+00        10    1        10     17937  0.6718267043E+00  0.8600203206E+00  0.5000000000E+00  0.1005166247E+04  0.4931105093E+03 -0.6792620063E+01         1
       1       1  0.3000000000E+00        11    1        11     17731  0.5167519786E+00  0.6833043758E+00  0.5000000000E+00  0.1006011172E+04  0.4939337934E+03 -0.6793117762E+01         1
       1       1  0.3000000000E+00        12    1        12     17525  0.2582485257E+00  0.5881417775E+00  0.5000000000E+00  0.1006752669E+04  0.4948386308E+03 -0.6792213917E+01         1
       1       1  0.3000000000E+00        13    1        13     17512  0.5449617661E+00  0.2924374199E+00  0.5000000000E+00  0.9940393818E+03  0.4945429264E+03 -0.6801766276E+01         1
       1       1  0.3000000000E+00        14    1        14     17720  0.4308445273E+00  0.3760367323E+00  0.5000000000E+00  0.9949252645E+03  0.4936265257E+03 -0.6800230145E+01         1