# LPF package for  MODFLOW-2005, generated by Flopy.
        53    -1E+30         0  
         1
         0
   0.000000E+00
         0
         0
INTERNAL               1 (207E15.6) -1 #hk layer 1                    
   8.987518E-02   3.530138E-02   1.626877E-02   2.593269E-02   1.130626E-01   1.734712E-01   5.422284E-02   1.763424E-02   2.992306E-02   5.158747E-02   1.541201E-02   4.095095E-02   1.328667E-02   1.119173E-02   3.519965E-02   7.610328E-02   6.490882E-02   6.218695E-02   8.373578E-02   6.817441E-02   9.597841E-02   6.163928E-02   1.423424E-01   4.558778E-02   5.538059E-02   1.178862E-02   1.158587E-02   1.439060E-02   3.153701E-02   3.658478E-02   5.122165E-02   2.556293E-02   7.837345E-02   1.746286E-01   7.313877E-02   4.264260E-02   9.520304E-03   1.148758E-02   1.014634E-01   4.671162E-02   9.493560E-02   4.091028E-01   1.671748E-01   3.844262E-02   1.079168E-02   1.758049E-02   5.776145E-02   3.933209E-02   4.481019E-02   1.428024E-02   2.924736E-02   5.667331E-02   3.991279E-02   2.757828E-02   4.563022E-02   4.516691E-02   1.918186E-02   1.500870E-02   1.326877E-02   3.216534E-02   2.059603E-02   3.561408E-02   3.090954E-02   3.726465E-02   5.774714E-02   5.339979E-02   3.244956E-02   2.124889E-02   1.622560E-02   4.713218E-03   7.713243E-03   9.595163E-03   7.009032E-03   8.986983E-03   1.721154E-02   3.211470E-02   4.372844E-02   1.260482E-02   3.673163E-02   3.855738E-02   2.362693E-02   3.931128E-02   2.552934E-02   1.767316E-02   2.842785E-02   4.562096E-02   8.586569E-02   7.121500E-02   1.639626E-02   7.296754E-03   7.296754E-03   8.117309E-03   5.554413E-02   5.554413E-02   1.238576E-01   6.365324E-02   6.365324E-02   3.798463E-02   3.798463E-02   3.798463E-02   9.620564E-03   9.620564E-03   9.620564E-03   3.427335E-03   3.427335E-03   3.427335E-03   3.427335E-03   3.427335E-03   3.201378E-03   3.201378E-03   3.201378E-03   3.201378E-03   3.201378E-03   1.819661E-03   1.819661E-03   1.819661E-03   1.819661E-03   1.819661E-03   1.819661E-03   1.819661E-03   1.298788E-02   1.298788E-02   1.298788E-02   1.298788E-02   1.298788E-02   1.298788E-02   1.298788E-02   1.298788E-02   1.298788E-02   1.298788E-02   2.538461E-02   2.538461E-02   2.538461E-02   2.538461E-02   2.538461E-02   2.538461E-02   2.538461E-02   2.538461E-02   2.538461E-02   3.427938E-02   3.427938E-02   3.427938E-02   3.427938E-02   3.427938E-02   3.427938E-02   3.427938E-02   4.440505E-02   4.440505E-02   4.440505E-02   4.440505E-02   4.440505E-02   3.846607E-02   3.846607E-02   3.846607E-02   3.846607E-02   5.917067E-02   5.917067E-02   5.917067E-02   3.554959E-02   3.554959E-02   2.517221E-02   2.517221E-02   6.363668E-02   6.363668E-02   1.689793E-01   3.122407E-02   5.580724E-02   5.580724E-02   5.638128E-02   4.093288E-02   1.276868E-02   2.834631E-02   1.144309E-02   7.158541E-03   4.753319E-03   7.205751E-03   8.170041E-03   1.322151E-02   3.640345E-02   3.357348E-02   2.321114E-02   2.197824E-02   2.941729E-02   4.174671E-02   6.257179E-02   4.209953E-02   8.183503E-02   4.643424E-02   7.064950E-02   8.393193E-02   4.335582E-02   5.694694E-02   3.982629E-02   5.375111E-02   2.711713E-02   1.379682E-02   1.416721E-02   2.066116E-02   9.848832E-02   8.813750E-02   6.673309E-02   3.116852E-02   2.478470E-02   1.662009E-02   2.014926E-02   1.851974E-02   3.871517E-02
   5.197288E-02   1.281642E-02   1.964857E-02   2.299637E-02   1.126366E-01   6.505027E-02   2.299562E-02   1.988431E-02   1.796106E-02   3.404834E-02   2.673103E-02   8.938064E-02   1.697452E-02   7.419088E-03   2.423096E-02   5.699664E-02   5.531587E-02   1.043211E-01   4.109406E-02   7.573259E-02   4.621195E-02   8.442017E-02   1.389437E-01   7.981905E-02   7.899676E-02   4.561813E-02   3.166480E-02   3.026637E-02   3.922629E-02   3.857334E-02   2.215490E-02   4.088506E-02   6.923056E-02   1.592271E-01   4.422769E-02   4.438351E-02   1.884646E-02   1.496554E-02   1.052162E-01   8.656392E-02   1.140946E-01   4.648600E-01   3.958992E-01   7.326768E-02   3.389319E-02   3.724918E-02   1.048706E-01   6.816740E-02   7.166295E-02   1.258147E-02   5.369215E-02   4.244648E-02   2.635637E-02   1.603225E-02   2.202771E-02   4.549945E-02   2.182883E-02   3.601874E-02   2.347763E-02   6.890422E-02   3.271638E-02   1.743077E-02   3.439151E-02   2.096834E-02   3.031923E-02   7.777831E-02   4.220606E-02   4.536314E-02   1.895501E-02   3.585929E-03   7.789928E-03   6.602567E-03   8.821199E-03   9.524980E-03   2.465710E-02   2.564337E-02   3.854472E-02   2.608144E-02   2.848572E-02   2.764215E-02   3.272714E-02   4.748837E-02   4.111957E-02   1.772883E-02   2.322477E-02   4.788877E-02   3.675630E-02   7.666440E-02   3.686823E-02   1.545867E-02   1.545867E-02   1.511638E-02   8.277486E-02   8.277486E-02   1.530549E-01   6.854904E-02   6.854904E-02   6.871170E-02   6.871170E-02   6.871170E-02   1.420545E-02   1.420545E-02   1.420545E-02   2.865379E-03   2.865379E-03   2.865379E-03   2.865379E-03   2.865379E-03   1.861777E-03   1.861777E-03   1.861777E-03   1.861777E-03   1.861777E-03   3.052923E-03   3.052923E-03   3.052923E-03   3.052923E-03   3.052923E-03   3.052923E-03   3.052923E-03   8.747607E-03   8.747607E-03   8.747607E-03   8.747607E-03   8.747607E-03   8.747607E-03   8.747607E-03   8.747607E-03   8.747607E-03   8.747607E-03   2.849877E-02   2.849877E-02   2.849877E-02   2.849877E-02   2.849877E-02   2.849877E-02   2.849877E-02   2.849877E-02   2.849877E-02   3.728861E-02   3.728861E-02   3.728861E-02   3.728861E-02   3.728861E-02   3.728861E-02   3.728861E-02   5.548166E-02   5.548166E-02   5.548166E-02   5.548166E-02   5.548166E-02   1.830941E-02   1.830941E-02   1.830941E-02   1.830941E-02   1.250881E-01   1.250881E-01   1.250881E-01   7.217851E-02   7.217851E-02   3.671457E-02   3.671457E-02   7.407562E-02   7.407562E-02   1.150376E-01   7.688641E-02   5.365377E-02   5.365377E-02   5.177152E-02   5.571480E-02   2.205095E-02   7.228954E-02   1.940219E-02   1.001594E-02   1.167194E-02   1.015074E-02   3.166068E-02   2.498391E-02   5.932324E-02   5.258257E-02   3.454517E-02   3.247104E-02   1.525015E-02   1.777800E-02   4.280969E-02   3.207959E-02   5.349618E-02   3.483524E-02   5.276743E-02   5.696386E-02   7.139663E-02   1.206629E-01   2.955702E-02   3.321884E-02   1.113448E-02   7.818456E-03   1.358255E-02   1.027526E-02   3.086639E-02   4.538349E-02   8.997045E-02   4.584460E-02   1.456168E-02   1.406676E-02   1.690534E-02   1.821033E-02   2.069579E-02
   4.361235E-02   8.757357E-03   8.205757E-03   2.942514E-02   3.837979E-02   3.047777E-02   2.195467E-02   8.186606E-03   8.636232E-03   1.114076E-02   1.895991E-02   6.359364E-02   3.322738E-02   6.529347E-03   2.347330E-02   4.266385E-02   4.899077E-02   1.097712E-01   1.975373E-02   7.742855E-02   5.484533E-02   5.964589E-02   1.076648E-01   5.995806E-02   7.678321E-02   5.289173E-02   2.110598E-02   1.189004E-02   5.380409E-02   2.780520E-02   1.767654E-02   2.024570E-02   3.778441E-02   1.012127E-01   4.123521E-02   3.224938E-02   2.266512E-02   2.974787E-02   4.432336E-02   8.713690E-02   1.097717E-01   3.362084E-01   1.954663E-01   6.260653E-02   2.030262E-01   7.951375E-02   8.828437E-02   1.140958E-01   5.758588E-02   1.986258E-02   3.418107E-02   2.578623E-02   1.989958E-02   3.065001E-02   3.332636E-02   7.043533E-02   2.706048E-02   5.335595E-02   2.060412E-02   1.046096E-01   5.396745E-02   8.630916E-03   3.304572E-02   4.375437E-02   3.673456E-02   7.552004E-02   9.534194E-02   9.209168E-02   5.801588E-02   5.255769E-03   5.822497E-03   7.521580E-03   7.130335E-03   1.503543E-02   9.774352E-03   1.693558E-02   2.664473E-02   2.836817E-02   4.642691E-02   3.278331E-02   1.951590E-02   2.925310E-02   5.175162E-02   2.022926E-02   2.036437E-02   2.158910E-02   5.191085E-02   4.970884E-02   3.276338E-02   3.113955E-02   3.113955E-02   2.251246E-02   9.018119E-02   9.018119E-02   1.725540E-01   9.481266E-02   9.481266E-02   4.479202E-02   4.479202E-02   4.479202E-02   1.603850E-02   1.603850E-02   1.603850E-02   4.500553E-03   4.500553E-03   4.500553E-03   4.500553E-03   4.500553E-03   2.788972E-03   2.788972E-03   2.788972E-03   2.788972E-03   2.788972E-03   4.363492E-03   4.363492E-03   4.363492E-03   4.363492E-03   4.363492E-03   4.363492E-03   4.363492E-03   1.280894E-02   1.280894E-02   1.280894E-02   1.280894E-02   1.280894E-02   1.280894E-02   1.280894E-02   1.280894E-02   1.280894E-02   1.280894E-02   2.061975E-02   2.061975E-02   2.061975E-02   2.061975E-02   2.061975E-02   2.061975E-02   2.061975E-02   2.061975E-02   2.061975E-02   3.208674E-02   3.208674E-02   3.208674E-02   3.208674E-02   3.208674E-02   3.208674E-02   3.208674E-02   5.077220E-02   5.077220E-02   5.077220E-02   5.077220E-02   5.077220E-02   2.334255E-02   2.334255E-02   2.334255E-02   2.334255E-02   8.588582E-02   8.588582E-02   8.588582E-02   3.556073E-02   3.556073E-02   3.399822E-02   3.399822E-02   2.872112E-02   2.872112E-02   7.004450E-02   8.636855E-02   1.455942E-01   1.455942E-01   5.442309E-02   7.206599E-02   6.107814E-02   2.106651E-02   1.549759E-02   6.863339E-03   1.370373E-02   1.550111E-02   6.008897E-02   4.892589E-02   3.183544E-02   3.360315E-02   5.048658E-02   4.648398E-02   1.646877E-02   1.233442E-02   2.573393E-02   5.535570E-02   2.941652E-02   2.731918E-02   3.934703E-02   5.568230E-02   1.052937E-01   1.376389E-01   7.668395E-02   4.104437E-02   7.630071E-03   6.393604E-03   6.924407E-03   6.423183E-03   5.159602E-02   4.222754E-02   5.584862E-02   2.232290E-02   2.362702E-02   1.526929E-02   2.009313E-02   6.682523E-02   2.811961E-02
   6.461101E-02   6.531347E-03   1.035864E-02   3.789866E-02   5.964734E-02   2.660378E-02   1.141463E-02   4.978680E-03   7.588983E-03   5.455600E-03   3.102570E-02   2.967955E-02   2.787982E-02   5.902157E-03   1.604035E-02   2.364181E-02   3.591668E-02   3.714887E-02   8.880816E-03   3.937757E-02   3.721168E-02   2.504342E-02   1.029950E-01   3.740108E-02   3.809846E-02   3.438204E-02   3.436795E-02   1.085530E-02   2.360505E-02   4.228752E-02   1.777231E-02   3.558930E-02   3.355786E-02   5.134654E-02   3.517144E-02   2.636253E-02   1.923457E-02   3.303323E-02   1.827304E-02   9.181871E-02   1.224704E-01   1.815505E-01   8.806551E-02   7.239763E-02   8.146155E-02   7.572798E-02   8.749324E-02   9.329145E-02   9.892263E-02   2.104532E-02   6.856582E-02   2.074020E-02   1.259504E-02   2.639401E-02   6.598690E-02   4.659272E-02   3.078455E-02   2.791459E-02   2.158483E-02   5.019991E-02   4.701720E-02   1.377799E-02   7.063323E-02   4.260760E-02   4.993268E-02   6.626371E-02   7.983331E-02   9.741908E-02   2.312968E-02   3.116303E-03   3.081030E-03   5.264122E-03   5.561126E-03   2.351385E-02   9.392650E-03   6.474664E-03   2.143329E-02   4.370449E-02   5.890732E-02   5.373670E-02   3.034566E-02   4.379705E-02   3.231280E-02   3.158441E-02   2.345215E-02   3.381696E-02   3.325115E-02   6.706426E-02   5.582602E-02   4.929523E-02   4.929523E-02   5.197985E-02   7.756482E-02   7.756482E-02   1.363681E-01   7.013218E-02   7.013218E-02   2.132062E-02   2.132062E-02   2.132062E-02   1.804514E-02   1.804514E-02   1.804514E-02   7.306998E-03   7.306998E-03   7.306998E-03   7.306998E-03   7.306998E-03   4.640532E-03   4.640532E-03   4.640532E-03   4.640532E-03   4.640532E-03   1.621786E-02   1.621786E-02   1.621786E-02   1.621786E-02   1.621786E-02   1.621786E-02   1.621786E-02   1.741771E-02   1.741771E-02   1.741771E-02   1.741771E-02   1.741771E-02   1.741771E-02   1.741771E-02   1.741771E-02   1.741771E-02   1.741771E-02   2.991581E-02   2.991581E-02   2.991581E-02   2.991581E-02   2.991581E-02   2.991581E-02   2.991581E-02   2.991581E-02   2.991581E-02   5.605717E-02   5.605717E-02   5.605717E-02   5.605717E-02   5.605717E-02   5.605717E-02   5.605717E-02   1.304246E-01   1.304246E-01   1.304246E-01   1.304246E-01   1.304246E-01   3.638636E-02   3.638636E-02   3.638636E-02   3.638636E-02   6.084548E-02   6.084548E-02   6.084548E-02   1.539961E-02   1.539961E-02   4.150924E-02   4.150924E-02   4.915809E-02   4.915809E-02   6.322578E-02   3.802244E-02   8.940568E-02   8.940568E-02   4.214549E-02   9.398809E-02   7.145979E-02   1.813168E-02   2.570698E-02   1.098431E-02   2.146622E-02   3.268505E-02   7.048097E-02   2.047940E-02   4.316203E-02   3.128785E-02   2.783343E-02   3.257407E-02   1.253671E-02   7.947511E-03   1.466542E-02   3.393739E-02   1.625351E-02   4.636657E-02   4.226785E-02   3.088903E-02   8.294414E-02   1.452119E-01   1.259833E-01   7.102504E-02   2.459858E-02   1.337430E-02   1.131741E-02   1.828977E-02   7.169202E-02   8.308607E-02   4.437817E-02   2.550370E-02   4.054624E-02   2.037245E-02   2.741916E-02   6.865723E-02   3.067533E-02
   3.567572E-02   6.696052E-03   1.601637E-02   2.602777E-02   3.296435E-02   1.690960E-02   6.634617E-03   5.821791E-03   8.407145E-03   8.580784E-03   4.124316E-02   1.232002E-02   1.198631E-02   7.393211E-03   4.963933E-03   1.433402E-02   2.815427E-02   6.625115E-02   7.762528E-03   1.866316E-02   3.926972E-02   2.710558E-02   1.170879E-01   5.965861E-02   7.825845E-02   4.431411E-02   1.268958E-02   1.404888E-02   1.247067E-02   1.286225E-02   9.351221E-03   1.942889E-02   2.708401E-02   1.730148E-02   1.278991E-02   1.197051E-02   3.371812E-02   7.315905E-02   1.261060E-02   7.017813E-02   1.060444E-01   6.429187E-02   9.879216E-02   1.000668E-01   6.898804E-02   4.745253E-02   8.174960E-02   4.711643E-02   8.926849E-02   2.854623E-02   7.779404E-02   8.798447E-03   1.753958E-02   1.327434E-02   1.046956E-01   6.539595E-02   2.506557E-02   1.678730E-02   2.042558E-02   5.192528E-02   3.175258E-02   2.688079E-02   4.262036E-02   3.361995E-02   4.763462E-02   9.667730E-02   6.480031E-02   4.607702E-02   1.517936E-02   4.222885E-03   3.901944E-03   5.687706E-03   5.105374E-03   1.374306E-02   1.440139E-02   1.705197E-02   1.578594E-02   5.359758E-02   6.993103E-02   1.226537E-01   3.200388E-02   2.814784E-02   1.526572E-02   2.961262E-02   1.135109E-02   2.829770E-02   2.466269E-02   5.746812E-02   3.041886E-02   5.759084E-02   5.759084E-02   5.889627E-02   8.335267E-02   8.335267E-02   9.598067E-02   7.262349E-02   7.262349E-02   7.347710E-02   7.347710E-02   7.347710E-02   3.731573E-02   3.731573E-02   3.731573E-02   2.149628E-02   2.149628E-02   2.149628E-02   2.149628E-02   2.149628E-02   1.036493E-02   1.036493E-02   1.036493E-02   1.036493E-02   1.036493E-02   1.895260E-02   1.895260E-02   1.895260E-02   1.895260E-02   1.895260E-02   1.895260E-02   1.895260E-02   2.577721E-02   2.577721E-02   2.577721E-02   2.577721E-02   2.577721E-02   2.577721E-02   2.577721E-02   2.577721E-02   2.577721E-02   2.577721E-02   4.953668E-02   4.953668E-02   4.953668E-02   4.953668E-02   4.953668E-02   4.953668E-02   4.953668E-02   4.953668E-02   4.953668E-02   9.402416E-02   9.402416E-02   9.402416E-02   9.402416E-02   9.402416E-02   9.402416E-02   9.402416E-02   5.895284E-02   5.895284E-02   5.895284E-02   5.895284E-02   5.895284E-02   4.120623E-02   4.120623E-02   4.120623E-02   4.120623E-02   2.890464E-02   2.890464E-02   2.890464E-02   1.753775E-02   1.753775E-02   3.753771E-02   3.753771E-02   2.645264E-02   2.645264E-02   3.447156E-02   2.262920E-02   1.115246E-02   1.115246E-02   3.648311E-02   9.200356E-02   5.039606E-02   3.833304E-02   2.611140E-02   1.107078E-02   1.887203E-02   4.980019E-02   2.808868E-02   1.892248E-02   1.874195E-02   2.560471E-02   1.634470E-02   2.024921E-02   9.786674E-03   1.182873E-02   7.787364E-03   2.397358E-02   2.693036E-02   4.727517E-02   4.292458E-02   2.951071E-02   9.063233E-02   3.695991E-02   4.820811E-02   8.788367E-02   4.236526E-02   1.939936E-02   1.326574E-02   4.847424E-02   9.423742E-02   4.620829E-02   4.462795E-02   3.404340E-02   2.298339E-02   3.147537E-02   2.555270E-02   2.257579E-02   5.090841E-02
   1.870446E-02   6.911322E-03   1.244074E-02   2.229467E-02   3.291658E-02   2.254733E-02   7.405248E-03   6.058428E-03   6.985920E-03   1.330175E-02   4.008352E-02   8.518087E-03   6.921581E-03   1.328999E-02   6.059476E-03   6.369348E-03   2.689305E-02   2.059001E-02   5.520165E-03   1.938098E-02   2.701529E-02   5.398355E-02   1.343189E-01   3.915342E-02   5.751531E-02   3.214528E-02   1.832706E-02   1.081263E-02   1.091276E-02   1.419019E-02   9.638937E-03   1.329125E-02   1.976318E-02   8.437691E-03   9.255274E-03   1.603253E-02   2.286406E-02   1.500541E-02   5.471400E-03   1.901836E-02   5.918721E-02   3.707817E-02   7.627127E-02   4.721369E-02   1.646745E-02   5.179114E-02   4.748658E-02   1.456026E-02   6.628772E-02   3.752228E-02   5.846995E-02   1.345618E-02   1.622391E-02   1.558393E-02   5.518518E-02   4.081878E-02   2.175965E-02   4.741817E-02   2.175361E-02   5.146327E-02   6.795319E-02   3.312899E-02   8.015804E-02   2.158711E-02   2.257200E-02   8.408435E-02   4.562957E-02   2.836526E-02   3.647069E-02   7.787892E-03   5.221941E-03   5.721133E-03   1.130612E-02   1.830845E-02   2.094179E-02   2.741341E-02   4.795368E-02   5.616441E-02   4.435633E-02   6.580464E-02   1.742476E-02   4.309166E-02   8.918356E-03   1.593371E-02   1.397353E-02   3.320972E-02   3.039996E-02   3.320054E-02   5.576646E-02   5.319228E-02   5.319228E-02   5.947144E-02   1.436575E-01   1.436575E-01   1.174348E-01   7.533948E-02   7.533948E-02   3.897291E-02   3.897291E-02   3.897291E-02   4.226219E-02   4.226219E-02   4.226219E-02   3.730831E-02   3.730831E-02   3.730831E-02   3.730831E-02   3.730831E-02   1.211925E-02   1.211925E-02   1.211925E-02   1.211925E-02   1.211925E-02   9.461896E-03   9.461896E-03   9.461896E-03   9.461896E-03   9.461896E-03   9.461896E-03   9.461896E-03   1.736155E-02   1.736155E-02   1.736155E-02   1.736155E-02   1.736155E-02   1.736155E-02   1.736155E-02   1.736155E-02   1.736155E-02   1.736155E-02   4.759280E-02   4.759280E-02   4.759280E-02   4.759280E-02   4.759280E-02   4.759280E-02   4.759280E-02   4.759280E-02   4.759280E-02   7.930212E-02   7.930212E-02   7.930212E-02   7.930212E-02   7.930212E-02   7.930212E-02   7.930212E-02   3.485464E-02   3.485464E-02   3.485464E-02   3.485464E-02   3.485464E-02   3.813369E-02   3.813369E-02   3.813369E-02   3.813369E-02   1.949852E-02   1.949852E-02   1.949852E-02   3.319483E-02   3.319483E-02   2.909250E-02   2.909250E-02   2.705055E-02   2.705055E-02   2.757316E-02   3.496247E-02   1.056735E-02   1.056735E-02   2.854912E-02   9.740832E-02   8.982099E-02   8.488607E-02   3.483068E-02   1.527585E-02   3.796431E-02   2.721783E-02   4.236107E-02   2.919590E-02   1.912930E-02   2.106499E-02   2.129729E-02   1.388579E-02   1.526332E-02   1.215702E-02   4.984689E-03   1.069461E-02   2.355730E-02   2.162295E-02   6.405618E-02   3.366455E-02   7.008561E-02   2.761126E-02   4.666928E-02   1.289663E-01   3.527150E-02   1.236845E-02   1.951541E-02   2.241053E-02   8.977006E-02   3.151830E-02   5.054226E-02   3.137796E-02   2.646442E-02   3.672494E-02   5.516319E-02   2.275528E-02   6.395607E-02
   7.475388E-03   6.735714E-03   1.409283E-02   1.421384E-02   4.751825E-02   2.963103E-02   1.301841E-02   1.135784E-02   1.245566E-02   7.440777E-03   1.671115E-02   9.798525E-03   1.521191E-02   6.602739E-03   5.210496E-03   1.723357E-03   8.002719E-03   7.458058E-03   6.337179E-03   1.004094E-02   1.793349E-02   3.831756E-02   4.798231E-02   1.714315E-02   5.966835E-02   3.370585E-02   1.215234E-02   2.260490E-02   1.612943E-02   8.817383E-03   1.602213E-02   1.331818E-02   2.672000E-02   1.097656E-02   8.000230E-03   1.553772E-02   2.618758E-02   1.697675E-02   1.171475E-02   7.079647E-03   1.447243E-02   2.063060E-02   1.245794E-02   1.725906E-02   1.604624E-02   2.286302E-02   2.015703E-02   1.120772E-02   3.415893E-02   5.838391E-02   3.435194E-02   1.265042E-02   1.534444E-02   1.475665E-02   6.149338E-02   3.167761E-02   1.647753E-02   3.072645E-02   5.020475E-02   4.253419E-02   8.256482E-02   6.080870E-02   6.883828E-02   2.044909E-02   3.856026E-02   4.993287E-02   4.860828E-02   1.948039E-02   2.066115E-02   8.884956E-03   9.293111E-03   5.499072E-03   1.455641E-02   1.915898E-02   3.336044E-02   1.524584E-02   5.638347E-02   7.775067E-02   2.348397E-02   3.840825E-02   3.559048E-02   1.342344E-02   7.093421E-03   1.393616E-02   1.843281E-02   3.515562E-02   6.689233E-02   5.092396E-02   9.922706E-02   8.739831E-02   8.739831E-02   1.220125E-01   6.925166E-02   6.925166E-02   1.465463E-01   6.255851E-02   6.255851E-02   1.806153E-02   1.806153E-02   1.806153E-02   5.324230E-02   5.324230E-02   5.324230E-02   3.435140E-02   3.435140E-02   3.435140E-02   3.435140E-02   3.435140E-02   4.691502E-03   4.691502E-03   4.691502E-03   4.691502E-03   4.691502E-03   1.008379E-02   1.008379E-02   1.008379E-02   1.008379E-02   1.008379E-02   1.008379E-02   1.008379E-02   1.675976E-02   1.675976E-02   1.675976E-02   1.675976E-02   1.675976E-02   1.675976E-02   1.675976E-02   1.675976E-02   1.675976E-02   1.675976E-02   8.239817E-02   8.239817E-02   8.239817E-02   8.239817E-02   8.239817E-02   8.239817E-02   8.239817E-02   8.239817E-02   8.239817E-02   2.087407E-02   2.087407E-02   2.087407E-02   2.087407E-02   2.087407E-02   2.087407E-02   2.087407E-02   4.730664E-02   4.730664E-02   4.730664E-02   4.730664E-02   4.730664E-02   6.307536E-02   6.307536E-02   6.307536E-02   6.307536E-02   1.653790E-02   1.653790E-02   1.653790E-02   1.798664E-02   1.798664E-02   3.712564E-02   3.712564E-02   3.072723E-02   3.072723E-02   3.452943E-02   3.039362E-02   1.299084E-02   1.299084E-02   2.388267E-02   1.341590E-01   1.105114E-01   4.738339E-02   3.129592E-02   1.200004E-02   1.805721E-02   4.202320E-02   4.220148E-02   1.529484E-02   1.671513E-02   1.738859E-02   3.920289E-02   2.223938E-02   1.761413E-02   2.523058E-02   7.272244E-03   2.609529E-02   1.046106E-02   6.201947E-03   4.879350E-02   3.141758E-02   4.268022E-02   3.832134E-02   4.316333E-02   6.902880E-02   2.733999E-02   2.502418E-02   1.884689E-02   2.330237E-02   5.672513E-02   4.617584E-02   3.938625E-02   5.894679E-02   2.951388E-02   2.324672E-02   4.995457E-02   1.931974E-02   2.224863E-02
   4.209232E-03   9.191344E-03   1.656427E-02   3.092592E-02   2.856698E-02   2.834186E-02   2.303824E-02   1.671942E-02   4.527858E-02   1.001423E-02   9.617686E-03   8.350202E-03   7.594102E-03   8.707447E-03   2.443352E-03   1.077919E-03   4.126808E-03   5.415811E-03   1.057976E-02   1.408793E-02   3.849222E-02   4.472448E-02   2.888924E-02   1.221660E-02   3.459528E-02   1.737592E-02   1.508981E-02   2.248997E-02   1.253932E-02   1.316233E-02   8.525590E-03   2.108784E-02   3.711150E-02   1.725009E-02   8.772916E-03   1.491119E-02   2.200660E-02   1.457527E-02   1.849284E-02   8.502065E-03   6.396664E-03   1.656938E-02   6.432990E-03   1.033411E-02   2.126570E-02   5.474900E-02   1.509228E-02   1.320060E-02   1.805542E-02   3.696479E-02   8.563341E-03   4.441551E-03   8.043294E-03   8.919286E-03   2.545515E-02   9.312711E-03   1.863930E-02   6.132491E-02   6.038928E-02   3.970203E-02   8.683024E-02   6.505218E-02   1.430068E-01   1.457226E-02   5.829243E-02   1.021454E-01   5.249130E-02   1.450980E-02   1.807955E-02   2.398268E-02   1.280592E-02   2.123051E-02   3.906791E-02   1.794714E-02   3.362793E-02   1.594738E-02   4.107887E-02   7.278281E-02   2.028359E-02   4.218331E-02   3.634403E-02   1.300662E-02   9.467740E-03   7.273028E-03   1.673155E-02   2.816419E-02   6.479358E-02   5.586628E-02   9.568488E-02   1.596210E-01   1.596210E-01   1.068776E-01   3.420651E-02   3.420651E-02   4.022613E-02   3.167086E-02   3.167086E-02   1.458625E-02   1.458625E-02   1.458625E-02   6.266902E-02   6.266902E-02   6.266902E-02   3.061352E-02   3.061352E-02   3.061352E-02   3.061352E-02   3.061352E-02   1.396736E-02   1.396736E-02   1.396736E-02   1.396736E-02   1.396736E-02   2.131631E-02   2.131631E-02   2.131631E-02   2.131631E-02   2.131631E-02   2.131631E-02   2.131631E-02   1.330421E-02   1.330421E-02   1.330421E-02   1.330421E-02   1.330421E-02   1.330421E-02   1.330421E-02   1.330421E-02   1.330421E-02   1.330421E-02   6.446128E-02   6.446128E-02   6.446128E-02   6.446128E-02   6.446128E-02   6.446128E-02   6.446128E-02   6.446128E-02   6.446128E-02   2.910361E-02   2.910361E-02   2.910361E-02   2.910361E-02   2.910361E-02   2.910361E-02   2.910361E-02   1.185825E-01   1.185825E-01   1.185825E-01   1.185825E-01   1.185825E-01   6.371956E-02   6.371956E-02   6.371956E-02   6.371956E-02   2.252132E-02   2.252132E-02   2.252132E-02   1.098309E-02   1.098309E-02   2.707002E-02   2.707002E-02   3.831566E-02   3.831566E-02   3.855019E-02   3.179637E-02   2.390580E-02   2.390580E-02   2.307846E-02   1.239267E-01   1.394991E-01   1.065924E-01   5.358048E-02   1.627670E-02   3.073661E-02   6.818338E-02   4.880078E-02   1.925817E-02   1.446169E-02   1.548467E-02   2.224988E-02   1.980899E-02   3.451891E-02   7.924550E-02   4.914696E-02   7.344641E-02   2.398006E-02   1.313193E-02   7.710737E-02   1.929569E-02   5.914883E-02   3.980026E-02   1.786909E-02   3.116951E-02   2.358161E-02   4.403033E-02   4.368270E-02   7.644783E-02   5.681643E-02   3.197575E-02   3.555050E-02   8.576136E-02   3.255808E-02   2.014412E-02   7.114254E-02   4.778018E-02   3.377949E-02
   5.570211E-03   1.019979E-02   2.907719E-02   3.732834E-02   1.420601E-02   2.167059E-02   1.892800E-02   2.293228E-02   7.714042E-02   2.259325E-02   1.463195E-02   1.038366E-02   4.988205E-03   6.480686E-03   2.796347E-03   1.254636E-03   2.050500E-03   4.148285E-03   8.087973E-03   2.477667E-02   4.676711E-02   2.525174E-02   1.558133E-02   8.294824E-03   2.056220E-02   1.496744E-02   1.522183E-02   1.807728E-02   1.770103E-02   1.249421E-02   2.091449E-02   2.742837E-02   2.035576E-02   1.839707E-02   1.160954E-02   1.092963E-02   2.411448E-02   2.230256E-02   9.394894E-03   5.423085E-03   3.581838E-03   3.802105E-03   3.587627E-03   1.377255E-02   8.697940E-03   2.663326E-02   7.213418E-03   2.016377E-02   2.133428E-02   1.797858E-02   1.006433E-02   5.696312E-03   5.760458E-03   2.223049E-02   1.830167E-02   1.314108E-02   1.884896E-02   9.383066E-02   7.364544E-02   5.628050E-02   7.210286E-02   7.068545E-02   9.877393E-02   5.281331E-02   5.453676E-02   6.013092E-02   7.518456E-02   1.611486E-02   3.145407E-02   2.315246E-02   2.088195E-02   4.231240E-02   5.490646E-02   3.857582E-02   3.474992E-02   3.717517E-02   6.059470E-02   5.724533E-02   1.201633E-02   3.476031E-02   1.494377E-02   8.544062E-03   9.714688E-03   1.317107E-02   1.706887E-02   3.441654E-02   5.672385E-02   1.572754E-01   1.421430E-01   1.479159E-01   1.479159E-01   1.207813E-01   5.095066E-02   5.095066E-02   2.711881E-02   2.052366E-02   2.052366E-02   1.218259E-02   1.218259E-02   1.218259E-02   8.171438E-02   8.171438E-02   8.171438E-02   1.708616E-02   1.708616E-02   1.708616E-02   1.708616E-02   1.708616E-02   1.880641E-02   1.880641E-02   1.880641E-02   1.880641E-02   1.880641E-02   1.834206E-02   1.834206E-02   1.834206E-02   1.834206E-02   1.834206E-02   1.834206E-02   1.834206E-02   9.008750E-03   9.008750E-03   9.008750E-03   9.008750E-03   9.008750E-03   9.008750E-03   9.008750E-03   9.008750E-03   9.008750E-03   9.008750E-03   3.042569E-02   3.042569E-02   3.042569E-02   3.042569E-02   3.042569E-02   3.042569E-02   3.042569E-02   3.042569E-02   3.042569E-02   3.774316E-02   3.774316E-02   3.774316E-02   3.774316E-02   3.774316E-02   3.774316E-02   3.774316E-02   9.045152E-02   9.045152E-02   9.045152E-02   9.045152E-02   9.045152E-02   5.428670E-02   5.428670E-02   5.428670E-02   5.428670E-02   6.079558E-02   6.079558E-02   6.079558E-02   3.015156E-02   3.015156E-02   4.527695E-02   4.527695E-02   3.644659E-02   3.644659E-02   2.791045E-02   3.541047E-02   1.868632E-02   1.868632E-02   2.884482E-02   3.564541E-02   1.846033E-01   1.458035E-01   4.364926E-02   3.062330E-02   7.388078E-02   5.151947E-02   3.414945E-02   4.022144E-02   2.025276E-02   9.163868E-03   1.583112E-02   1.230844E-02   1.953687E-02   6.677022E-02   2.034077E-01   8.480389E-02   2.784983E-02   1.457826E-02   5.333197E-02   4.968197E-02   9.056816E-02   3.316997E-02   1.348995E-02   3.631520E-02   2.799382E-02   4.587145E-02   5.470023E-02   5.228117E-02   3.354454E-02   5.481579E-02   5.222023E-02   3.934792E-02   2.304213E-02   5.874826E-02   5.425037E-02   2.433403E-02   3.257623E-02