# LPF package for  MODFLOW-2005, generated by Flopy.
        53    -1E+30         0  
         1
         0
   0.000000E+00
         0
         0
INTERNAL               1 (207E15.6) -1 #hk layer 1                    
   3.716148E+01   1.414314E+02   2.628133E+02   9.501176E+01   5.264925E+01   3.230382E+01   1.879476E+01   2.757007E+01   1.726758E+01   7.249907E+00   1.703413E+01   6.651424E+00   7.115403E+00   4.262435E+00   1.204289E+01   1.302771E+01   1.449742E+01   2.510449E+01   4.008155E+01   1.069842E+01   6.033014E+01   1.075775E+02   4.870901E+01   3.756394E+01   4.263341E+01   2.739998E+01   1.817906E+02   3.988668E+02   2.507064E+02   1.366467E+02   5.013031E+01   2.049435E+01   2.528739E+01   1.397111E+01   8.677486E+00   1.181906E+01   2.957920E+01   8.747723E+01   7.693392E+01   8.167173E+01   5.461819E+01   3.412852E+01   2.696377E+02   2.172293E+02   1.075287E+02   2.069091E+02   9.892267E+01   1.327129E+01   2.329251E+01   3.096421E+01   8.063188E+01   1.387245E+01   5.088023E+01   5.410280E+01   1.259723E+01   1.363648E+01   1.018792E+01   5.171470E+00   5.566421E+00   1.405407E+01   1.663314E+01   3.065935E+01   3.254316E+01   2.402473E+01   2.605148E+01   3.280018E+01   3.222684E+01   2.541254E+01   1.361767E+01   1.735293E+01   3.378283E+01   3.060988E+01   8.710841E+00   4.619071E+00   1.372346E+01   2.379537E+01   5.322668E+01   4.026184E+01   4.107444E+01   4.117559E+01   4.938569E+01   3.268022E+01   2.145301E+01   1.566377E+01   1.007155E+01   8.212782E+00   3.622902E+01   9.891536E+01   1.583830E+02   8.785623E+01   8.785623E+01   9.490279E+01   5.905825E+01   5.905825E+01   7.547114E+01   5.706651E+01   5.706651E+01   1.467759E+02   1.467759E+02   1.467759E+02   1.196672E+02   1.196672E+02   1.196672E+02   1.176717E+02   1.176717E+02   1.176717E+02   1.176717E+02   1.176717E+02   8.071885E+01   8.071885E+01   8.071885E+01   8.071885E+01   8.071885E+01   4.076711E+01   4.076711E+01   4.076711E+01   4.076711E+01   4.076711E+01   4.076711E+01   4.076711E+01   1.712619E+01   1.712619E+01   1.712619E+01   1.712619E+01   1.712619E+01   1.712619E+01   1.712619E+01   1.712619E+01   1.712619E+01   1.712619E+01   1.529186E+01   1.529186E+01   1.529186E+01   1.529186E+01   1.529186E+01   1.529186E+01   1.529186E+01   1.529186E+01   1.529186E+01   3.011105E+01   3.011105E+01   3.011105E+01   3.011105E+01   3.011105E+01   3.011105E+01   3.011105E+01   6.543478E+01   6.543478E+01   6.543478E+01   6.543478E+01   6.543478E+01   8.492894E+01   8.492894E+01   8.492894E+01   8.492894E+01   5.462839E+01   5.462839E+01   5.462839E+01   1.019674E+02   1.019674E+02   1.723946E+01   1.723946E+01   3.971724E+01   3.971724E+01   5.496808E+01   1.320899E+01   2.227808E+01   2.227808E+01   3.009358E+01   1.776225E+01   3.502362E+01   2.549196E+01   2.205969E+01   1.789617E+01   1.791579E+01   4.242453E+01   2.308025E+01   3.220436E+01   1.047111E+01   1.417358E+01   1.903136E+01   2.326879E+01   2.869642E+01   4.855682E+01   1.026665E+01   1.646921E+01   2.601825E+01   5.710525E+01   1.666969E+02   6.906448E+01   3.773303E+01   1.807108E+01   1.350410E+01   2.066106E+01   1.085694E+01   4.618586E+01   1.945699E+01   3.621594E+01   6.741860E+01   9.658277E+01   4.155592E+01   3.170668E+01   4.932137E+01   2.529994E+01   1.385962E+01   1.295869E+01   5.642678E+00
   4.794417E+01   2.715126E+02   2.940150E+02   9.448280E+01   6.404120E+01   1.576411E+01   1.343156E+01   1.207348E+01   1.694860E+01   7.035249E+00   1.448201E+01   8.239630E+00   7.033411E+00   8.049444E+00   1.993435E+01   1.503532E+01   3.272965E+01   3.149272E+01   2.469449E+01   2.619913E+01   3.290520E+01   7.025766E+01   8.773057E+01   8.877861E+01   4.951845E+01   3.187633E+01   4.020175E+01   1.314760E+02   2.069391E+02   5.611398E+01   4.135884E+01   2.349309E+01   1.635706E+01   1.444289E+01   1.859912E+01   2.390574E+01   2.703449E+01   6.787641E+01   1.247389E+02   4.971146E+01   5.261911E+01   5.578897E+01   1.279379E+02   1.085982E+02   1.765013E+02   1.074901E+02   7.196225E+01   2.303365E+01   2.064062E+01   2.109336E+01   4.622980E+01   1.827715E+01   4.526959E+01   3.893619E+01   2.386339E+01   3.677185E+01   1.834538E+01   1.402330E+01   7.306679E+00   1.299320E+01   2.737868E+01   1.819018E+01   8.934265E+00   1.838533E+01   3.597744E+01   3.550947E+01   6.164074E+01   2.535694E+01   2.071859E+01   1.393998E+01   6.308581E+01   6.442557E+01   6.962526E+00   8.003322E+00   1.306543E+01   2.349183E+01   3.257951E+01   6.067180E+01   4.612655E+01   4.847602E+01   5.492090E+01   3.919014E+01   1.449901E+01   1.905142E+01   4.831119E+00   1.009021E+01   5.387665E+01   6.397744E+01   1.391490E+02   1.671452E+02   1.671452E+02   5.997143E+01   5.561672E+01   5.561672E+01   4.573626E+01   6.061371E+01   6.061371E+01   7.816238E+01   7.816238E+01   7.816238E+01   1.503309E+02   1.503309E+02   1.503309E+02   8.633250E+01   8.633250E+01   8.633250E+01   8.633250E+01   8.633250E+01   6.044793E+01   6.044793E+01   6.044793E+01   6.044793E+01   6.044793E+01   3.669964E+01   3.669964E+01   3.669964E+01   3.669964E+01   3.669964E+01   3.669964E+01   3.669964E+01   1.937040E+01   1.937040E+01   1.937040E+01   1.937040E+01   1.937040E+01   1.937040E+01   1.937040E+01   1.937040E+01   1.937040E+01   1.937040E+01   2.366477E+01   2.366477E+01   2.366477E+01   2.366477E+01   2.366477E+01   2.366477E+01   2.366477E+01   2.366477E+01   2.366477E+01   3.465538E+01   3.465538E+01   3.465538E+01   3.465538E+01   3.465538E+01   3.465538E+01   3.465538E+01   3.781942E+01   3.781942E+01   3.781942E+01   3.781942E+01   3.781942E+01   1.194059E+02   1.194059E+02   1.194059E+02   1.194059E+02   7.684113E+01   7.684113E+01   7.684113E+01   2.292944E+02   2.292944E+02   2.883886E+01   2.883886E+01   4.233873E+01   4.233873E+01   5.867685E+01   7.726596E+00   1.994891E+01   1.994891E+01   2.803064E+01   2.766759E+01   2.822604E+01   5.982828E+01   2.283685E+01   3.294659E+01   1.102894E+01   1.201948E+01   1.696389E+01   1.930685E+01   1.232912E+01   1.458546E+01   1.088937E+01   2.402976E+01   4.667033E+01   3.117007E+01   1.001183E+01   2.253856E+01   4.493200E+01   2.069585E+01   1.387219E+02   7.059766E+01   5.225574E+01   2.413732E+01   2.479323E+01   2.456825E+01   1.774604E+01   3.256132E+01   1.087168E+01   1.570661E+01   3.650649E+01   3.259561E+01   9.879070E+01   4.058360E+01   4.597866E+01   3.164139E+01   1.876819E+01   1.142224E+01   9.433759E+00
   3.053533E+01   2.877045E+02   2.486007E+02   3.531079E+01   5.738352E+01   1.584812E+01   1.075322E+01   2.987782E+01   1.403590E+01   1.324189E+01   1.619801E+01   1.081931E+01   1.078889E+01   5.079848E+00   2.075662E+01   2.931239E+01   3.050244E+01   3.735054E+01   5.814448E+01   3.808974E+01   2.127728E+01   7.492143E+01   3.482217E+01   1.157361E+02   5.702085E+01   5.082095E+01   1.623576E+01   9.269590E+01   1.374479E+02   3.177232E+01   1.091768E+01   1.726890E+01   3.030418E+01   1.480330E+01   2.713892E+01   1.510161E+01   4.522979E+01   8.835287E+01   8.731409E+01   4.569248E+01   2.872433E+01   2.189018E+01   2.012245E+01   5.134544E+01   7.087542E+01   8.860841E+01   9.403574E+01   1.359417E+01   1.412926E+01   2.436740E+01   1.584052E+01   1.440365E+01   2.388780E+01   6.021895E+01   4.138104E+01   3.776663E+01   1.595445E+01   9.083786E+00   1.260524E+01   2.397905E+01   3.831631E+01   2.900120E+01   1.261903E+01   3.074505E+01   2.178467E+01   2.875651E+01   6.026897E+01   3.090106E+01   1.966323E+01   2.649641E+01   9.085687E+01   4.802172E+01   2.091166E+01   1.980658E+01   1.058418E+01   2.983892E+01   2.350376E+01   3.821406E+01   6.099636E+01   1.453523E+02   9.639364E+01   4.668985E+01   1.961408E+01   1.028960E+01   5.357603E+00   8.425853E+00   5.360357E+01   4.574940E+01   7.124845E+01   5.503929E+01   5.503929E+01   3.306028E+01   5.933157E+01   5.933157E+01   9.043178E+01   3.458711E+01   3.458711E+01   1.839592E+01   1.839592E+01   1.839592E+01   8.878395E+01   8.878395E+01   8.878395E+01   9.680762E+01   9.680762E+01   9.680762E+01   9.680762E+01   9.680762E+01   6.253186E+01   6.253186E+01   6.253186E+01   6.253186E+01   6.253186E+01   6.653034E+01   6.653034E+01   6.653034E+01   6.653034E+01   6.653034E+01   6.653034E+01   6.653034E+01   3.148862E+01   3.148862E+01   3.148862E+01   3.148862E+01   3.148862E+01   3.148862E+01   3.148862E+01   3.148862E+01   3.148862E+01   3.148862E+01   3.084672E+01   3.084672E+01   3.084672E+01   3.084672E+01   3.084672E+01   3.084672E+01   3.084672E+01   3.084672E+01   3.084672E+01   1.385578E+01   1.385578E+01   1.385578E+01   1.385578E+01   1.385578E+01   1.385578E+01   1.385578E+01   3.585630E+01   3.585630E+01   3.585630E+01   3.585630E+01   3.585630E+01   8.399415E+01   8.399415E+01   8.399415E+01   8.399415E+01   8.394331E+01   8.394331E+01   8.394331E+01   8.149721E+01   8.149721E+01   6.763362E+01   6.763362E+01   2.038418E+01   2.038418E+01   1.982087E+01   1.230403E+01   1.075053E+01   1.075053E+01   1.424138E+01   1.661125E+01   2.466440E+01   1.002327E+02   3.145967E+01   2.404854E+01   1.412807E+01   1.542713E+01   1.389361E+01   2.464439E+01   1.257422E+01   1.607532E+01   1.189445E+01   3.050514E+01   3.866589E+01   2.949040E+01   2.049880E+01   2.678368E+01   3.672006E+01   3.426813E+01   1.407360E+02   6.306037E+01   8.881752E+01   7.096267E+01   3.418294E+01   2.063212E+01   1.955792E+01   3.250453E+01   7.292247E+00   7.880318E+00   1.823442E+01   2.949447E+01   7.943913E+01   3.777702E+01   7.014626E+01   4.248897E+01   1.593181E+01   2.224139E+01   8.008779E+00
   5.723115E+01   1.237417E+02   1.332320E+02   8.540728E+01   3.838358E+01   1.549050E+01   6.486259E+00   3.590996E+01   2.771208E+01   1.143796E+01   1.097212E+01   7.726758E+00   1.683237E+01   7.663002E+00   1.477723E+01   5.518839E+01   7.044883E+01   4.266108E+01   6.774330E+01   8.286609E+01   3.032730E+01   5.254628E+01   3.110503E+01   7.486516E+01   4.391211E+01   1.255364E+01   1.004764E+01   2.350198E+01   3.089732E+01   2.133471E+01   4.872231E+00   2.134886E+01   2.511744E+01   1.553935E+01   3.021629E+01   2.507551E+01   1.423894E+01   5.611548E+01   1.244063E+02   3.703483E+01   3.235226E+01   1.574764E+01   1.059701E+01   1.962132E+01   5.380422E+01   6.226027E+01   3.330481E+01   1.728434E+01   9.203340E+00   1.168465E+01   1.222006E+01   1.459701E+01   9.414478E+00   3.450390E+01   4.374641E+01   2.965712E+01   3.960512E+01   1.680326E+01   2.116824E+01   4.206019E+01   1.667489E+01   2.178025E+01   1.037347E+01   1.227491E+01   9.905096E+00   4.204354E+01   4.775081E+01   1.428256E+01   2.533592E+01   2.846549E+01   1.906695E+02   4.168211E+01   1.630264E+01   1.037473E+01   1.057054E+01   3.843542E+01   2.217314E+01   2.737499E+01   4.027135E+01   8.478537E+01   7.427515E+01   3.164478E+01   9.996372E+00   1.281832E+01   7.261739E+00   1.373929E+01   2.458499E+01   2.530723E+01   3.981332E+01   1.356949E+02   1.356949E+02   3.262114E+01   4.511700E+01   4.511700E+01   7.078609E+01   3.929015E+01   3.929015E+01   2.238899E+01   2.238899E+01   2.238899E+01   6.691235E+01   6.691235E+01   6.691235E+01   4.713152E+01   4.713152E+01   4.713152E+01   4.713152E+01   4.713152E+01   2.790740E+01   2.790740E+01   2.790740E+01   2.790740E+01   2.790740E+01   4.420482E+01   4.420482E+01   4.420482E+01   4.420482E+01   4.420482E+01   4.420482E+01   4.420482E+01   3.714340E+01   3.714340E+01   3.714340E+01   3.714340E+01   3.714340E+01   3.714340E+01   3.714340E+01   3.714340E+01   3.714340E+01   3.714340E+01   4.563058E+01   4.563058E+01   4.563058E+01   4.563058E+01   4.563058E+01   4.563058E+01   4.563058E+01   4.563058E+01   4.563058E+01   3.424062E+01   3.424062E+01   3.424062E+01   3.424062E+01   3.424062E+01   3.424062E+01   3.424062E+01   5.249683E+01   5.249683E+01   5.249683E+01   5.249683E+01   5.249683E+01   1.342014E+02   1.342014E+02   1.342014E+02   1.342014E+02   5.905319E+01   5.905319E+01   5.905319E+01   7.113056E+01   7.113056E+01   9.608279E+01   9.608279E+01   1.919069E+01   1.919069E+01   1.438399E+01   1.574790E+01   8.134787E+00   8.134787E+00   1.346741E+01   1.232461E+01   3.369561E+01   7.655566E+01   1.804079E+01   3.901257E+01   2.325943E+01   1.686833E+01   6.946686E+00   1.989085E+01   1.818752E+01   2.686670E+01   1.657399E+01   2.995458E+01   2.284002E+01   9.191283E+01   5.375265E+01   9.358382E+01   4.888800E+01   9.140917E+01   2.558349E+02   2.976206E+02   1.198546E+02   1.468453E+02   2.753708E+01   3.156812E+01   1.431526E+01   8.239079E+00   5.171138E+00   4.180241E+00   6.921884E+00   2.415974E+01   4.841569E+01   4.855724E+01   4.652569E+01   2.315480E+01   4.264592E+01   1.527383E+01   1.010744E+01
   1.416751E+02   1.197203E+02   4.210545E+01   5.193523E+01   1.891898E+01   1.805850E+01   1.778018E+01   2.888084E+01   1.922966E+01   1.358712E+01   6.488396E+00   1.354060E+01   2.183584E+01   2.817101E+01   1.908378E+01   5.035167E+01   1.022474E+02   2.674390E+01   4.216442E+01   6.411121E+01   4.657716E+01   2.046233E+01   3.366974E+01   3.208504E+01   2.754442E+01   1.016033E+01   1.438283E+01   2.298238E+01   1.303936E+01   1.364120E+01   6.915662E+00   2.164007E+01   3.587207E+01   2.182436E+01   3.565614E+01   6.134485E+01   3.458613E+01   5.741819E+01   5.600469E+01   5.117323E+01   1.854705E+01   1.964705E+01   2.487785E+01   1.951521E+01   4.260315E+01   3.401749E+01   3.589845E+01   1.729981E+01   9.947342E+00   1.383334E+01   1.627698E+01   1.365049E+01   7.305504E+00   3.926347E+01   7.751282E+01   4.142667E+01   5.737056E+01   3.398988E+01   4.182644E+01   2.956948E+01   1.694227E+01   9.061646E+00   3.250798E+01   1.747026E+01   7.689925E+00   4.614549E+01   3.105337E+01   9.368344E+00   1.900475E+01   4.808055E+01   5.745654E+02   4.328444E+01   7.418653E+00   1.348078E+01   1.982848E+01   3.752475E+01   2.336485E+01   3.546875E+01   4.239462E+01   6.153366E+01   4.852141E+01   3.426488E+01   1.295710E+01   1.256321E+01   5.475227E+00   8.583772E+00   2.882334E+01   4.894664E+01   8.444233E+01   9.542725E+01   9.542725E+01   4.686103E+01   5.791660E+01   5.791660E+01   7.611191E+01   3.779224E+01   3.779224E+01   3.153210E+01   3.153210E+01   3.153210E+01   2.409405E+01   2.409405E+01   2.409405E+01   3.557543E+01   3.557543E+01   3.557543E+01   3.557543E+01   3.557543E+01   2.354134E+01   2.354134E+01   2.354134E+01   2.354134E+01   2.354134E+01   9.422475E+01   9.422475E+01   9.422475E+01   9.422475E+01   9.422475E+01   9.422475E+01   9.422475E+01   4.336724E+01   4.336724E+01   4.336724E+01   4.336724E+01   4.336724E+01   4.336724E+01   4.336724E+01   4.336724E+01   4.336724E+01   4.336724E+01   9.997442E+01   9.997442E+01   9.997442E+01   9.997442E+01   9.997442E+01   9.997442E+01   9.997442E+01   9.997442E+01   9.997442E+01   6.299287E+01   6.299287E+01   6.299287E+01   6.299287E+01   6.299287E+01   6.299287E+01   6.299287E+01   5.254603E+01   5.254603E+01   5.254603E+01   5.254603E+01   5.254603E+01   1.227166E+02   1.227166E+02   1.227166E+02   1.227166E+02   1.673803E+02   1.673803E+02   1.673803E+02   2.232499E+02   2.232499E+02   6.316014E+01   6.316014E+01   2.233547E+01   2.233547E+01   1.031140E+01   1.369666E+01   7.202600E+00   7.202600E+00   6.292784E+00   9.165225E+00   2.322724E+01   2.027039E+01   2.036461E+01   1.821584E+01   1.640932E+01   2.247788E+01   7.961541E+00   1.042536E+01   1.264100E+01   2.796393E+01   1.896528E+01   1.732887E+01   4.571706E+01   1.672537E+02   9.065427E+01   9.088644E+01   7.714899E+01   5.196178E+01   2.508769E+02   2.254898E+02   3.299224E+02   2.354964E+02   9.438453E+01   3.281224E+01   1.026086E+01   5.043642E+00   5.274741E+00   3.755883E+00   7.346113E+00   1.108490E+01   3.735409E+01   7.439003E+01   4.992850E+01   2.589570E+01   3.072565E+01   2.706683E+01   2.437095E+01
   1.559073E+02   1.764793E+02   7.935828E+01   9.997914E+01   2.532333E+01   3.410092E+01   1.679398E+01   1.225089E+01   2.636599E+01   2.579534E+01   1.000659E+01   1.598006E+01   2.589987E+01   3.091077E+01   3.594835E+01   1.166548E+02   6.268626E+01   2.279388E+01   5.461923E+01   8.596023E+01   2.152754E+01   2.990239E+01   2.552512E+01   2.264666E+01   3.724548E+01   1.449479E+01   9.676544E+00   1.566334E+01   1.430560E+01   8.302772E+00   5.088869E+00   4.974533E+01   2.587850E+01   4.192465E+01   4.705317E+01   2.427623E+01   3.815721E+01   4.356490E+01   7.154036E+01   8.398722E+01   4.548506E+01   1.822672E+01   2.278391E+01   1.509211E+01   3.126800E+01   1.154683E+01   4.861622E+01   1.773810E+01   6.328778E+00   8.400420E+00   1.466379E+01   1.219772E+01   1.331953E+01   2.061275E+01   6.452422E+01   5.892110E+01   7.053819E+01   6.536269E+01   3.319421E+01   2.819974E+01   1.834669E+01   7.608540E+01   7.187685E+01   4.387570E+01   2.113539E+01   8.773624E+01   6.660014E+01   2.634142E+01   1.950736E+01   9.152901E+01   3.398490E+02   6.336029E+01   1.423293E+01   9.910392E+00   2.144287E+01   3.708121E+01   8.040881E+01   2.676253E+01   1.062096E+02   6.563921E+01   5.930106E+01   4.095152E+01   2.769525E+01   1.124042E+01   6.564926E+00   1.893279E+01   2.058382E+01   4.134211E+01   8.634149E+01   1.518677E+02   1.518677E+02   6.716753E+01   6.606937E+01   6.606937E+01   6.007866E+01   3.958626E+01   3.958626E+01   1.992156E+01   1.992156E+01   1.992156E+01   2.610538E+01   2.610538E+01   2.610538E+01   3.868206E+01   3.868206E+01   3.868206E+01   3.868206E+01   3.868206E+01   1.565842E+01   1.565842E+01   1.565842E+01   1.565842E+01   1.565842E+01   1.080492E+02   1.080492E+02   1.080492E+02   1.080492E+02   1.080492E+02   1.080492E+02   1.080492E+02   4.777211E+01   4.777211E+01   4.777211E+01   4.777211E+01   4.777211E+01   4.777211E+01   4.777211E+01   4.777211E+01   4.777211E+01   4.777211E+01   7.502800E+01   7.502800E+01   7.502800E+01   7.502800E+01   7.502800E+01   7.502800E+01   7.502800E+01   7.502800E+01   7.502800E+01   3.033360E+01   3.033360E+01   3.033360E+01   3.033360E+01   3.033360E+01   3.033360E+01   3.033360E+01   7.849057E+01   7.849057E+01   7.849057E+01   7.849057E+01   7.849057E+01   6.046907E+01   6.046907E+01   6.046907E+01   6.046907E+01   3.217089E+02   3.217089E+02   3.217089E+02   1.565692E+02   1.565692E+02   2.305042E+02   2.305042E+02   3.374593E+01   3.374593E+01   8.085774E+00   1.044120E+01   1.981652E+01   1.981652E+01   6.819483E+00   2.969044E+01   2.357976E+01   2.107476E+01   1.329509E+01   1.192367E+01   1.917207E+01   2.241088E+01   7.459742E+00   9.116174E+00   7.522758E+00   9.708733E+00   2.012793E+01   1.203045E+01   4.388567E+01   1.045341E+02   1.953436E+02   1.357212E+02   1.638573E+02   5.724544E+01   9.565749E+01   9.349934E+01   7.274197E+02   1.831717E+02   1.487023E+02   6.334183E+01   5.715551E+00   4.689119E+00   4.730525E+00   3.843771E+00   5.635546E+00   1.255161E+01   2.200772E+01   4.495512E+01   6.255318E+01   3.177957E+01   2.008340E+01   1.968489E+01   1.683555E+01
   1.970864E+02   1.076602E+02   1.322620E+02   1.444668E+02   9.587120E+01   7.077917E+01   3.173848E+01   1.188147E+01   3.507939E+01   3.061657E+01   2.361078E+01   2.596943E+01   5.023019E+01   6.527613E+01   8.372977E+01   8.319361E+01   8.883463E+01   2.304792E+01   6.600463E+01   9.067295E+01   2.936975E+01   2.405110E+01   1.067346E+01   7.681114E+00   1.239685E+01   1.387472E+01   1.008240E+01   7.229478E+00   5.653492E+00   6.674579E+00   4.419343E+00   2.266217E+01   4.992675E+01   4.048338E+01   8.335096E+01   2.071455E+01   3.605391E+01   4.731490E+01   8.956953E+01   8.065582E+01   6.681432E+01   1.957744E+01   2.909585E+01   1.621172E+01   3.138340E+01   1.897113E+01   5.981247E+01   3.378498E+01   1.987224E+01   5.483758E+00   1.378968E+01   3.074912E+01   1.439822E+01   2.856150E+01   5.111554E+01   1.132790E+02   3.867921E+01   4.848072E+01   7.163929E+01   4.419344E+01   7.477781E+01   2.080714E+02   8.490272E+01   1.317992E+01   1.673831E+01   7.884761E+01   3.134571E+01   3.348568E+01   5.208135E+01   1.584178E+02   3.173026E+02   7.327807E+01   2.934273E+01   2.283788E+01   2.244943E+01   1.371946E+01   9.358778E+01   3.041601E+01   6.277408E+01   6.311266E+01   6.836463E+01   1.712322E+01   1.516060E+01   1.253404E+01   9.352638E+00   1.192726E+01   2.062100E+01   4.156561E+01   5.483753E+01   1.078689E+02   1.078689E+02   1.367046E+02   4.617637E+01   4.617637E+01   4.486329E+01   4.591434E+01   4.591434E+01   2.258153E+01   2.258153E+01   2.258153E+01   2.706145E+01   2.706145E+01   2.706145E+01   3.217400E+01   3.217400E+01   3.217400E+01   3.217400E+01   3.217400E+01   2.225405E+01   2.225405E+01   2.225405E+01   2.225405E+01   2.225405E+01   4.321291E+01   4.321291E+01   4.321291E+01   4.321291E+01   4.321291E+01   4.321291E+01   4.321291E+01   3.540747E+01   3.540747E+01   3.540747E+01   3.540747E+01   3.540747E+01   3.540747E+01   3.540747E+01   3.540747E+01   3.540747E+01   3.540747E+01   7.459821E+01   7.459821E+01   7.459821E+01   7.459821E+01   7.459821E+01   7.459821E+01   7.459821E+01   7.459821E+01   7.459821E+01   3.920877E+01   3.920877E+01   3.920877E+01   3.920877E+01   3.920877E+01   3.920877E+01   3.920877E+01   6.960283E+01   6.960283E+01   6.960283E+01   6.960283E+01   6.960283E+01   1.231190E+02   1.231190E+02   1.231190E+02   1.231190E+02   2.286753E+02   2.286753E+02   2.286753E+02   1.639014E+02   1.639014E+02   1.210145E+02   1.210145E+02   3.597544E+01   3.597544E+01   9.094572E+00   2.214089E+01   4.086252E+01   4.086252E+01   1.940788E+01   2.781166E+01   2.556757E+01   1.932154E+01   1.146366E+01   1.448869E+01   6.774803E+00   1.865866E+01   1.337725E+01   1.177849E+01   7.735198E+00   5.979958E+00   1.387254E+01   2.195311E+01   4.095812E+01   7.866814E+01   2.141861E+02   5.727388E+01   1.411342E+02   7.167719E+01   4.066191E+01   1.122191E+02   5.125366E+02   1.364510E+02   1.758781E+02   7.336355E+01   9.078732E+00   1.265178E+01   9.135553E+00   1.169513E+01   8.506305E+00   1.648281E+01   7.052808E+01   6.995226E+01   1.311466E+02   1.235968E+02   1.748478E+01   8.785336E+00   1.675325E+01
   1.871310E+02   1.578518E+02   2.351741E+02   7.654050E+01   5.285149E+01   3.653290E+01   3.237397E+01   2.694144E+01   7.556355E+01   2.945334E+01   3.086212E+01   4.301152E+01   5.087663E+01   5.209378E+01   1.097211E+02   1.453917E+02   4.204842E+01   3.103605E+01   5.121062E+01   1.416301E+02   5.307103E+01   2.144989E+01   1.111282E+01   5.820503E+00   1.096034E+01   1.693439E+01   1.066920E+01   2.976272E+00   2.430788E+00   2.543509E+00   6.708411E+00   1.465187E+01   3.456760E+01   6.732819E+01   5.061996E+01   2.146109E+01   4.981729E+01   8.529115E+01   8.265511E+01   7.099274E+01   4.117970E+01   2.337404E+01   3.121292E+01   4.251839E+01   1.941830E+01   3.306432E+01   4.373992E+01   1.539970E+01   3.260927E+01   5.947220E+00   2.339921E+01   1.792287E+01   1.497710E+01   2.267221E+01   5.490562E+01   1.390871E+02   6.892680E+01   1.056547E+02   9.504447E+01   5.970483E+01   8.019418E+01   1.112135E+02   5.207759E+01   5.104523E+01   2.571889E+01   3.321338E+01   2.042240E+01   3.117043E+01   1.082257E+02   1.345578E+02   1.421913E+02   6.614898E+01   3.732277E+01   6.784863E+01   2.376121E+01   1.948334E+01   3.509506E+01   4.916928E+01   2.648590E+01   4.444800E+01   3.256382E+01   1.953808E+01   1.102967E+01   2.058981E+01   1.075450E+01   2.577677E+01   7.546880E+01   5.684299E+01   3.679848E+01   7.168659E+01   7.168659E+01   1.503499E+02   6.103199E+01   6.103199E+01   5.977736E+01   1.601435E+02   1.601435E+02   4.571582E+01   4.571582E+01   4.571582E+01   3.049560E+01   3.049560E+01   3.049560E+01   5.173120E+01   5.173120E+01   5.173120E+01   5.173120E+01   5.173120E+01   2.524124E+01   2.524124E+01   2.524124E+01   2.524124E+01   2.524124E+01   4.227090E+01   4.227090E+01   4.227090E+01   4.227090E+01   4.227090E+01   4.227090E+01   4.227090E+01   2.927330E+01   2.927330E+01   2.927330E+01   2.927330E+01   2.927330E+01   2.927330E+01   2.927330E+01   2.927330E+01   2.927330E+01   2.927330E+01   6.256878E+01   6.256878E+01   6.256878E+01   6.256878E+01   6.256878E+01   6.256878E+01   6.256878E+01   6.256878E+01   6.256878E+01   2.307882E+01   2.307882E+01   2.307882E+01   2.307882E+01   2.307882E+01   2.307882E+01   2.307882E+01   2.642533E+01   2.642533E+01   2.642533E+01   2.642533E+01   2.642533E+01   8.177448E+01   8.177448E+01   8.177448E+01   8.177448E+01   1.293029E+02   1.293029E+02   1.293029E+02   1.114796E+02   1.114796E+02   5.134093E+01   5.134093E+01   6.876589E+01   6.876589E+01   4.011106E+01   5.104368E+01   4.748650E+01   4.748650E+01   7.044463E+01   6.448176E+01   7.773825E+01   3.265530E+01   2.165739E+01   9.730083E+00   5.625598E+00   9.762625E+00   1.686659E+01   9.071048E+00   6.168791E+00   9.774263E+00   1.260762E+01   1.217084E+01   2.666360E+01   5.020688E+01   7.541386E+01   5.251417E+01   1.392798E+02   3.947163E+01   2.860865E+01   6.790801E+01   1.997817E+02   2.762971E+02   2.329115E+02   3.511637E+01   2.506577E+01   1.722502E+01   6.420768E+00   9.913229E+00   5.972003E+00   1.474669E+01   2.447219E+01   3.122091E+01   5.570976E+01   9.843692E+01   1.005954E+01   1.094918E+01   2.765829E+01
   1.806914E+02   6.337509E+02   1.852657E+02   4.524804E+01   3.839036E+01   5.129446E+01   3.327803E+01   4.562463E+01   7.451854E+01   3.576525E+01   3.047240E+01   1.618811E+01   3.718723E+01   1.674666E+01   1.225870E+02   5.838499E+01   2.749995E+01   5.003086E+01   3.009653E+01   1.372795E+02   5.689864E+01   1.753656E+01   1.756723E+01   7.583344E+00   8.806250E+00   2.588640E+01   8.625713E+00   4.435258E+00   4.145018E+00   4.365668E+00   8.414391E+00   1.766778E+01   1.492061E+01   5.323209E+01   4.741087E+01   5.117025E+01   8.051464E+01   1.069482E+02   6.827905E+01   3.804123E+01   8.401497E+01   3.878395E+01   4.418641E+01   6.346915E+01   3.519329E+01   1.570173E+01   1.743915E+01   9.527176E+00   2.442840E+01   1.851590E+01   2.801208E+01   3.361338E+01   1.569398E+01   2.953396E+01   1.032038E+02   1.263683E+02   8.083005E+01   1.643545E+02   1.356376E+02   6.767430E+01   7.189636E+01   5.624288E+01   7.525356E+01   5.031269E+01   4.530341E+01   9.234430E+00   2.568752E+01   5.173851E+01   5.656788E+01   2.552563E+02   8.969255E+01   1.152638E+02   2.389810E+01   5.218948E+01   4.069489E+01   1.895982E+01   5.357988E+01   2.946334E+01   3.785332E+01   5.645902E+01   2.820432E+01   1.552240E+01   2.591586E+01   2.909036E+01   1.819720E+01   2.351278E+01   6.204420E+01   5.952147E+01   3.063606E+01   1.174597E+02   1.174597E+02   2.496705E+02   9.799361E+01   9.799361E+01   7.034239E+01   2.617968E+02   2.617968E+02   4.514393E+01   4.514393E+01   4.514393E+01   5.407243E+01   5.407243E+01   5.407243E+01   9.217950E+01   9.217950E+01   9.217950E+01   9.217950E+01   9.217950E+01   4.289738E+01   4.289738E+01   4.289738E+01   4.289738E+01   4.289738E+01   3.150093E+01   3.150093E+01   3.150093E+01   3.150093E+01   3.150093E+01   3.150093E+01   3.150093E+01   5.248711E+01   5.248711E+01   5.248711E+01   5.248711E+01   5.248711E+01   5.248711E+01   5.248711E+01   5.248711E+01   5.248711E+01   5.248711E+01   2.138360E+01   2.138360E+01   2.138360E+01   2.138360E+01   2.138360E+01   2.138360E+01   2.138360E+01   2.138360E+01   2.138360E+01   3.838377E+01   3.838377E+01   3.838377E+01   3.838377E+01   3.838377E+01   3.838377E+01   3.838377E+01   2.674373E+01   2.674373E+01   2.674373E+01   2.674373E+01   2.674373E+01   2.637415E+01   2.637415E+01   2.637415E+01   2.637415E+01   4.935739E+01   4.935739E+01   4.935739E+01   4.865934E+01   4.865934E+01   3.684501E+01   3.684501E+01   3.312762E+01   3.312762E+01   6.840678E+01   5.177875E+01   4.923673E+01   4.923673E+01   1.187323E+02   1.022428E+02   1.029724E+02   1.915941E+01   1.474198E+01   3.451341E+00   3.792620E+00   7.123599E+00   1.110077E+01   8.397587E+00   1.219387E+01   2.076624E+01   1.485699E+01   1.239917E+01   8.782403E+00   2.314636E+01   5.997721E+01   1.194906E+02   6.263438E+01   2.966542E+01   2.299710E+01   2.737473E+01   4.864626E+01   2.277492E+02   2.080237E+02   5.143667E+01   3.153232E+01   1.354765E+01   3.875026E+00   4.306259E+00   5.489098E+00   1.445753E+01   4.945110E+01   7.207221E+01   8.158707E+01   9.675959E+01   1.807485E+01   1.207148E+01   1.958202E+01