# LPF package for  MODFLOW-2005, generated by Flopy.
        53    -1E+30         0  
         1
         0
   0.000000E+00
         0
         0
INTERNAL               1 (207E15.6) -1 #hk layer 1                    
   4.305650E-02   2.161692E-02   2.297048E-02   9.455895E-03   1.613571E-02   2.677884E-02   6.402932E-02   2.793571E-02   3.597405E-02   5.087918E-02   8.065075E-02   1.184467E-01   4.264393E-01   2.270641E-01   6.244022E-02   4.630835E-02   5.451379E-02   3.374386E-02   1.251359E-01   1.215431E-01   8.225022E-02   2.935543E-02   1.237452E-02   1.009696E-02   2.603957E-02   3.530569E-02   1.983762E-02   1.855799E-02   2.744191E-02   1.411195E-01   1.232503E-01   2.133651E-01   2.115459E-01   2.102040E-01   1.791187E-01   1.217070E-01   3.131574E-02   1.863340E-02   1.818244E-02   4.708039E-02   4.775883E-02   1.340949E-02   1.778646E-02   1.417557E-02   2.283015E-02   4.498982E-02   1.514170E-02   3.540540E-02   3.478098E-02   4.453636E-02   3.225980E-02   1.887006E-02   9.054583E-03   1.146154E-02   3.118884E-02   9.563174E-02   1.062877E-01   2.363468E-02   1.174474E-02   2.014066E-02   2.501105E-02   6.010302E-02   1.444017E-01   6.898025E-02   1.065009E-01   1.502210E-01   7.730004E-02   7.677426E-02   6.067091E-02   3.448214E-02   1.257523E-01   6.554456E-02   7.195646E-02   6.274765E-02   3.377788E-02   2.101340E-02   2.661229E-02   4.538526E-02   1.241866E-01   1.157940E-01   1.472927E-01   2.055708E-01   2.031377E-01   1.575383E-01   1.894933E-01   7.314073E-02   7.784825E-02   5.541025E-02   9.968626E-02   9.546609E-02   9.546609E-02   6.866903E-02   7.998351E-02   7.998351E-02   2.054902E-02   9.883159E-03   9.883159E-03   7.087483E-03   7.087483E-03   7.087483E-03   3.564395E-02   3.564395E-02   3.564395E-02   5.119393E-02   5.119393E-02   5.119393E-02   5.119393E-02   5.119393E-02   1.123615E-01   1.123615E-01   1.123615E-01   1.123615E-01   1.123615E-01   6.507333E-02   6.507333E-02   6.507333E-02   6.507333E-02   6.507333E-02   6.507333E-02   6.507333E-02   1.158487E-01   1.158487E-01   1.158487E-01   1.158487E-01   1.158487E-01   1.158487E-01   1.158487E-01   1.158487E-01   1.158487E-01   1.158487E-01   1.621299E-01   1.621299E-01   1.621299E-01   1.621299E-01   1.621299E-01   1.621299E-01   1.621299E-01   1.621299E-01   1.621299E-01   3.684400E-01   3.684400E-01   3.684400E-01   3.684400E-01   3.684400E-01   3.684400E-01   3.684400E-01   3.654221E-01   3.654221E-01   3.654221E-01   3.654221E-01   3.654221E-01   2.947470E-01   2.947470E-01   2.947470E-01   2.947470E-01   1.721598E-01   1.721598E-01   1.721598E-01   7.692034E-02   7.692034E-02   3.294413E-02   3.294413E-02   1.227997E-02   1.227997E-02   6.670237E-02   8.070396E-02   1.684614E-01   1.684614E-01   5.072910E-02   2.420699E-02   1.492466E-02   3.753737E-02   5.582695E-02   1.113001E-01   1.720116E-01   2.522145E-01   1.490568E-01   1.340944E-01   1.447659E-01   3.900693E-02   6.122520E-02   8.181495E-02   4.763272E-02   2.575105E-02   5.099285E-02   2.039137E-02   1.787188E-02   6.869160E-02   7.102480E-02   1.733919E-02   1.487244E-02   1.350524E-01   9.750196E-02   1.031751E-01   3.311498E-02   1.319475E-02   2.218196E-02   1.614361E-02   6.634333E-02   5.401850E-01   2.761073E-01   1.737010E-01   9.434524E-02   9.112616E-02   4.238568E-02   2.622336E-02   2.606148E-02
   5.848099E-02   3.882085E-02   3.244353E-02   1.856633E-02   2.662214E-02   3.698652E-02   1.018631E-01   5.549871E-02   6.391037E-02   6.896833E-02   1.601281E-01   2.857776E-01   3.578167E-01   9.890595E-02   5.954829E-02   4.908340E-02   3.962141E-02   3.962578E-02   9.940619E-02   3.251599E-01   2.398040E-01   4.551065E-02   2.222269E-02   1.187883E-02   1.405639E-02   1.781888E-02   1.941341E-02   1.239248E-02   2.260529E-02   1.042482E-01   2.550340E-01   2.010403E-01   3.489124E-01   2.754627E-01   2.228489E-01   5.146451E-02   2.214459E-02   1.678151E-02   1.685688E-02   5.807481E-02   6.989580E-02   1.945229E-02   3.736155E-02   1.999693E-02   4.379268E-02   4.832442E-02   1.628961E-02   3.629623E-02   5.458898E-02   2.562823E-02   6.691163E-02   2.982346E-02   1.531506E-02   1.983964E-02   4.056977E-02   4.504245E-02   2.359742E-02   9.245241E-03   1.530571E-02   3.902333E-02   3.039567E-02   1.236481E-01   2.373516E-01   1.785971E-01   9.230940E-02   9.368525E-02   5.528579E-02   4.463131E-02   5.475367E-02   2.971438E-02   1.396998E-01   7.627387E-02   1.017823E-01   2.980725E-02   4.919937E-02   1.736840E-02   1.356224E-02   2.523186E-02   1.218593E-01   6.699499E-02   9.935594E-02   1.311492E-01   9.093622E-02   7.179945E-02   7.530599E-02   6.961678E-02   3.866999E-02   6.719892E-02   2.377098E-01   1.008101E-01   1.008101E-01   6.196848E-02   8.984727E-02   8.984727E-02   3.285880E-02   1.641103E-02   1.641103E-02   1.119321E-02   1.119321E-02   1.119321E-02   3.707357E-02   3.707357E-02   3.707357E-02   3.239550E-02   3.239550E-02   3.239550E-02   3.239550E-02   3.239550E-02   5.533671E-02   5.533671E-02   5.533671E-02   5.533671E-02   5.533671E-02   8.857606E-02   8.857606E-02   8.857606E-02   8.857606E-02   8.857606E-02   8.857606E-02   8.857606E-02   1.011565E-01   1.011565E-01   1.011565E-01   1.011565E-01   1.011565E-01   1.011565E-01   1.011565E-01   1.011565E-01   1.011565E-01   1.011565E-01   1.975245E-01   1.975245E-01   1.975245E-01   1.975245E-01   1.975245E-01   1.975245E-01   1.975245E-01   1.975245E-01   1.975245E-01   3.461390E-01   3.461390E-01   3.461390E-01   3.461390E-01   3.461390E-01   3.461390E-01   3.461390E-01   7.899563E-01   7.899563E-01   7.899563E-01   7.899563E-01   7.899563E-01   3.271469E-01   3.271469E-01   3.271469E-01   3.271469E-01   1.911419E-01   1.911419E-01   1.911419E-01   5.142718E-02   5.142718E-02   2.005832E-02   2.005832E-02   2.152437E-02   2.152437E-02   8.561357E-02   8.666978E-02   6.387327E-02   6.387327E-02   1.307758E-02   9.523720E-03   1.220336E-02   3.762779E-02   4.868691E-02   1.136046E-01   2.087531E-01   2.166393E-01   1.741648E-01   1.230938E-01   6.845091E-02   1.186642E-01   1.353246E-01   1.524962E-01   1.542471E-01   5.182169E-02   5.509916E-02   4.704082E-02   4.121707E-02   5.140395E-02   4.642498E-02   7.647496E-02   1.398670E-02   3.822565E-02   6.677391E-02   5.277710E-02   2.686202E-02   2.511150E-02   2.161146E-02   4.007452E-02   1.310891E-01   3.290782E-01   3.011982E-01   2.765155E-01   3.506652E-01   1.667067E-01   5.113460E-02   4.963306E-02   2.717781E-02
   1.023700E-01   3.071090E-02   2.052276E-02   5.122118E-02   4.540551E-02   4.332384E-02   4.117138E-02   1.127166E-01   1.488983E-01   1.237603E-01   2.169801E-01   4.838769E-01   3.379962E-01   6.873474E-02   5.705123E-02   8.734620E-02   7.781113E-02   9.075617E-02   1.322839E-01   2.647217E-01   2.250015E-01   5.421529E-02   4.654039E-02   9.828542E-03   1.757597E-02   2.246287E-02   2.587940E-02   3.094932E-02   5.827115E-02   2.077426E-01   3.376105E-01   1.831019E-01   1.994715E-01   3.443691E-01   1.337464E-01   3.718030E-02   2.448676E-02   3.712701E-02   1.905565E-02   8.501998E-02   4.346256E-02   2.765768E-02   2.585393E-02   1.643655E-02   2.254857E-02   2.853793E-02   2.351246E-02   5.083979E-02   1.012258E-01   2.985729E-02   4.219728E-02   3.081601E-02   1.247090E-02   1.188506E-02   4.972804E-02   4.590928E-02   2.704971E-02   9.188384E-03   1.224696E-02   1.841613E-02   2.680435E-02   5.414272E-02   1.152897E-01   9.430894E-02   6.800449E-02   8.124278E-02   3.131829E-02   6.394664E-02   4.860314E-02   2.848123E-02   8.828896E-02   4.514404E-02   8.043960E-02   3.346625E-02   3.430705E-02   2.200334E-02   1.496599E-02   7.169374E-03   2.841130E-02   5.237801E-02   6.001641E-02   7.883898E-02   3.403917E-02   7.263522E-02   3.811950E-02   2.099227E-02   3.768411E-02   6.565532E-02   7.106751E-02   3.725836E-02   3.725836E-02   3.293287E-02   7.073176E-02   7.073176E-02   4.476313E-02   3.201591E-02   3.201591E-02   2.877289E-02   2.877289E-02   2.877289E-02   5.087406E-02   5.087406E-02   5.087406E-02   3.483542E-02   3.483542E-02   3.483542E-02   3.483542E-02   3.483542E-02   1.217974E-01   1.217974E-01   1.217974E-01   1.217974E-01   1.217974E-01   4.230108E-02   4.230108E-02   4.230108E-02   4.230108E-02   4.230108E-02   4.230108E-02   4.230108E-02   7.549527E-02   7.549527E-02   7.549527E-02   7.549527E-02   7.549527E-02   7.549527E-02   7.549527E-02   7.549527E-02   7.549527E-02   7.549527E-02   1.385680E-01   1.385680E-01   1.385680E-01   1.385680E-01   1.385680E-01   1.385680E-01   1.385680E-01   1.385680E-01   1.385680E-01   2.465838E-01   2.465838E-01   2.465838E-01   2.465838E-01   2.465838E-01   2.465838E-01   2.465838E-01   7.509342E-01   7.509342E-01   7.509342E-01   7.509342E-01   7.509342E-01   6.093310E-01   6.093310E-01   6.093310E-01   6.093310E-01   1.675170E-01   1.675170E-01   1.675170E-01   8.253558E-02   8.253558E-02   1.454993E-02   1.454993E-02   2.809843E-02   2.809843E-02   9.402665E-02   1.520726E-01   1.009969E-01   1.009969E-01   2.195926E-02   1.327844E-02   3.065955E-02   4.243538E-02   8.218049E-02   1.022391E-01   3.849666E-01   1.566733E-01   1.521635E-01   7.968310E-02   5.347460E-02   9.567796E-02   6.593222E-02   1.506194E-01   1.473647E-01   6.269903E-02   5.465685E-02   3.521217E-02   4.940724E-02   8.104870E-02   3.454235E-02   6.049565E-02   8.841320E-03   3.173181E-02   3.917811E-02   2.628860E-02   1.917151E-02   1.705657E-02   2.873090E-02   4.768610E-02   1.483594E-01   3.767483E-01   2.731153E-01   6.304709E-01   3.839924E-01   2.641011E-01   3.801686E-02   3.836846E-02   2.277134E-02
   1.182718E-01   3.099840E-02   6.703185E-02   7.070249E-02   2.422162E-02   3.222571E-02   2.311845E-02   8.965173E-02   1.648222E-01   8.678750E-02   1.365051E-01   4.522755E-01   2.237258E-01   6.258177E-02   8.630490E-02   9.262956E-02   1.426088E-01   2.075838E-01   3.588222E-01   5.648242E-01   3.086487E-01   8.664929E-02   3.457312E-02   9.954795E-03   2.191022E-02   1.953982E-02   4.053194E-02   4.042068E-02   8.073871E-02   1.050872E-01   1.782549E-01   8.757664E-02   7.705399E-02   2.053160E-01   1.155622E-01   7.349429E-02   1.627235E-02   3.724946E-02   4.738237E-02   7.557502E-02   6.595046E-02   7.585445E-02   5.598794E-02   1.780533E-02   2.529161E-02   6.614203E-02   5.434979E-02   6.370580E-02   9.544641E-02   4.323843E-02   2.226368E-02   3.897952E-02   1.604878E-02   2.750320E-02   5.500149E-02   3.849418E-02   4.540126E-02   1.856237E-02   1.439292E-02   2.349100E-02   4.420904E-02   7.819178E-02   1.138811E-01   1.081197E-01   6.206251E-02   1.042965E-01   7.133439E-02   4.783103E-02   7.258660E-02   6.450886E-02   7.146510E-02   3.428469E-02   8.300770E-02   1.482149E-01   3.188700E-02   1.486519E-02   1.426682E-02   1.156053E-02   1.137139E-02   1.683402E-02   2.484854E-02   2.362118E-02   2.499318E-02   5.096592E-02   2.775043E-02   1.868153E-02   2.600595E-02   2.801769E-02   6.242845E-02   1.207940E-01   1.207940E-01   7.545199E-02   4.447674E-02   4.447674E-02   5.030071E-02   2.768981E-02   2.768981E-02   4.636429E-02   4.636429E-02   4.636429E-02   6.402650E-02   6.402650E-02   6.402650E-02   5.690526E-02   5.690526E-02   5.690526E-02   5.690526E-02   5.690526E-02   8.629244E-02   8.629244E-02   8.629244E-02   8.629244E-02   8.629244E-02   5.293803E-02   5.293803E-02   5.293803E-02   5.293803E-02   5.293803E-02   5.293803E-02   5.293803E-02   8.137218E-02   8.137218E-02   8.137218E-02   8.137218E-02   8.137218E-02   8.137218E-02   8.137218E-02   8.137218E-02   8.137218E-02   8.137218E-02   1.785318E-01   1.785318E-01   1.785318E-01   1.785318E-01   1.785318E-01   1.785318E-01   1.785318E-01   1.785318E-01   1.785318E-01   2.662164E-01   2.662164E-01   2.662164E-01   2.662164E-01   2.662164E-01   2.662164E-01   2.662164E-01   2.652532E-01   2.652532E-01   2.652532E-01   2.652532E-01   2.652532E-01   3.966118E-01   3.966118E-01   3.966118E-01   3.966118E-01   1.902162E-01   1.902162E-01   1.902162E-01   6.969295E-02   6.969295E-02   9.574636E-03   9.574636E-03   5.927452E-02   5.927452E-02   1.763832E-01   1.306489E-01   1.344556E-01   1.344556E-01   1.813176E-02   3.659222E-02   3.468465E-02   6.204692E-02   5.346561E-02   7.814983E-02   2.006454E-01   2.088604E-01   1.929913E-01   1.641136E-01   8.785311E-02   6.545927E-02   5.431657E-02   2.080152E-01   6.639452E-02   5.866290E-02   1.010779E-01   1.706560E-02   3.903797E-02   5.012457E-02   2.859533E-02   1.685196E-02   7.949221E-03   3.273013E-02   2.640154E-02   8.944651E-03   1.235680E-02   1.066878E-02   2.975873E-02   1.305471E-02   1.077066E-01   2.224202E-01   3.683710E-01   3.461305E-01   1.444735E+00   4.087678E-01   6.786741E-02   5.832243E-02   5.514270E-02
   1.598763E-01   2.926851E-02   2.291717E-02   3.624370E-02   1.825263E-02   3.008020E-02   5.027622E-02   3.041491E-02   7.452033E-02   1.000246E-01   7.607786E-02   1.728440E-01   3.017030E-01   1.669388E-01   9.302554E-02   1.876553E-01   1.162323E-01   1.781565E-01   2.697168E-01   2.365744E-01   3.635204E-01   9.934574E-02   1.396079E-02   1.528407E-02   2.140603E-02   1.361149E-02   5.859611E-02   4.110998E-02   9.844402E-02   2.596698E-01   2.316488E-01   1.035210E-01   8.040598E-02   1.173925E-01   2.959462E-02   1.026004E-01   2.611038E-02   7.139087E-02   5.049681E-02   3.042930E-02   9.447684E-02   7.778631E-02   3.146038E-02   3.310876E-02   8.085693E-02   7.518146E-02   8.768272E-02   1.299666E-01   5.581299E-02   4.183974E-02   2.802764E-02   7.202048E-02   4.601012E-02   3.317066E-02   5.998592E-02   1.639035E-02   3.520374E-02   2.457730E-02   1.855722E-02   3.554277E-02   4.392728E-02   9.642742E-02   5.299896E-02   5.283732E-02   3.784140E-02   2.078157E-01   1.243240E-01   6.200439E-02   5.516142E-02   5.843227E-02   4.813566E-02   6.893969E-02   6.539603E-02   1.330456E-01   5.993871E-02   2.939126E-02   1.755842E-02   5.757463E-03   8.747329E-03   5.069270E-03   8.094902E-03   6.455853E-03   1.485515E-02   3.182520E-02   2.844646E-02   2.830400E-02   2.196123E-02   3.152780E-02   7.189188E-02   5.856282E-02   5.856282E-02   1.072167E-01   5.643493E-02   5.643493E-02   7.485364E-02   3.566489E-02   3.566489E-02   8.112861E-02   8.112861E-02   8.112861E-02   1.011703E-01   1.011703E-01   1.011703E-01   1.148860E-01   1.148860E-01   1.148860E-01   1.148860E-01   1.148860E-01   9.824507E-02   9.824507E-02   9.824507E-02   9.824507E-02   9.824507E-02   8.655816E-02   8.655816E-02   8.655816E-02   8.655816E-02   8.655816E-02   8.655816E-02   8.655816E-02   1.909612E-01   1.909612E-01   1.909612E-01   1.909612E-01   1.909612E-01   1.909612E-01   1.909612E-01   1.909612E-01   1.909612E-01   1.909612E-01   2.762772E-01   2.762772E-01   2.762772E-01   2.762772E-01   2.762772E-01   2.762772E-01   2.762772E-01   2.762772E-01   2.762772E-01   2.479215E-01   2.479215E-01   2.479215E-01   2.479215E-01   2.479215E-01   2.479215E-01   2.479215E-01   2.877437E-01   2.877437E-01   2.877437E-01   2.877437E-01   2.877437E-01   2.243141E-01   2.243141E-01   2.243141E-01   2.243141E-01   1.286830E-01   1.286830E-01   1.286830E-01   4.340247E-02   4.340247E-02   1.621194E-02   1.621194E-02   6.788187E-02   6.788187E-02   1.052441E-01   5.206099E-02   1.437973E-01   1.437973E-01   1.413856E-02   2.146773E-02   3.276712E-02   4.158382E-02   2.007966E-02   5.980203E-02   1.505022E-01   3.148901E-01   1.232380E-01   1.664817E-01   3.347225E-01   9.089334E-02   5.394652E-02   1.254581E-01   4.898646E-02   5.938367E-02   1.333322E-01   1.710677E-02   4.781751E-02   1.864528E-02   2.660957E-02   1.843134E-02   1.494895E-02   9.789188E-03   1.890494E-02   1.075272E-02   1.561139E-02   8.772372E-03   3.422048E-02   1.321903E-02   9.712745E-02   1.430559E-01   7.412905E-01   2.989756E-01   4.594045E-01   2.405640E-01   8.002295E-02   9.414540E-02   5.555081E-02
   1.677199E-01   4.471110E-02   6.480527E-02   5.719253E-02   3.464711E-02   5.070349E-02   4.992887E-02   2.876514E-02   3.966225E-02   7.543420E-02   6.031909E-02   1.348782E-01   3.691391E-01   1.220557E-01   4.918195E-02   2.445228E-01   1.495288E-01   8.918638E-02   3.769503E-01   1.192242E-01   1.147336E-01   5.141052E-02   1.356040E-02   2.717594E-02   1.951420E-02   4.174459E-02   7.293753E-02   5.986648E-02   8.536592E-02   9.654360E-02   1.878736E-01   8.628306E-02   8.544495E-02   1.026868E-01   2.903774E-02   5.407386E-02   2.403623E-02   4.360893E-02   5.047727E-02   6.350157E-02   5.038273E-02   4.411342E-02   3.674152E-02   7.064073E-02   5.879147E-02   6.410323E-02   1.219807E-01   2.485456E-01   4.368601E-02   3.565954E-02   1.208884E-02   3.728773E-02   3.051709E-02   4.701036E-02   3.651145E-02   1.717090E-02   2.912085E-02   7.029429E-02   2.902952E-02   4.552387E-02   3.681051E-02   9.674343E-02   3.780301E-02   2.660786E-02   5.948083E-02   5.770523E-02   6.811296E-02   4.672179E-02   4.540624E-02   6.787520E-02   9.682810E-02   1.000635E-01   8.993328E-02   8.453204E-02   7.394128E-02   4.411316E-02   2.315400E-02   9.061121E-03   1.013479E-02   8.495227E-03   1.067648E-02   9.831022E-03   1.464791E-02   4.524247E-02   3.287169E-02   5.158818E-02   2.638255E-02   3.794960E-02   5.792055E-02   8.045353E-02   8.045353E-02   6.077160E-02   3.860867E-02   3.860867E-02   2.793143E-02   3.156628E-02   3.156628E-02   7.748772E-02   7.748772E-02   7.748772E-02   6.100411E-02   6.100411E-02   6.100411E-02   1.328287E-01   1.328287E-01   1.328287E-01   1.328287E-01   1.328287E-01   1.072040E-01   1.072040E-01   1.072040E-01   1.072040E-01   1.072040E-01   6.103424E-02   6.103424E-02   6.103424E-02   6.103424E-02   6.103424E-02   6.103424E-02   6.103424E-02   2.507950E-01   2.507950E-01   2.507950E-01   2.507950E-01   2.507950E-01   2.507950E-01   2.507950E-01   2.507950E-01   2.507950E-01   2.507950E-01   1.474447E-01   1.474447E-01   1.474447E-01   1.474447E-01   1.474447E-01   1.474447E-01   1.474447E-01   1.474447E-01   1.474447E-01   2.889595E-01   2.889595E-01   2.889595E-01   2.889595E-01   2.889595E-01   2.889595E-01   2.889595E-01   3.332463E-01   3.332463E-01   3.332463E-01   3.332463E-01   3.332463E-01   1.347951E-01   1.347951E-01   1.347951E-01   1.347951E-01   1.080064E-01   1.080064E-01   1.080064E-01   1.881813E-02   1.881813E-02   1.122980E-02   1.122980E-02   5.266602E-02   5.266602E-02   6.546963E-02   1.215276E-01   6.818285E-02   6.818285E-02   1.269510E-02   1.331053E-02   2.489315E-02   1.764113E-02   3.190821E-02   5.537421E-02   1.600978E-01   2.034322E-01   1.407223E-01   1.262778E-01   1.220940E-01   7.212185E-02   2.554727E-02   9.620768E-02   2.852898E-02   2.454522E-02   3.436236E-02   1.938300E-02   3.006692E-02   2.049754E-02   4.234774E-02   2.891072E-02   2.465080E-02   1.141402E-02   3.816595E-02   1.236127E-02   2.463434E-02   1.348145E-02   2.582081E-02   4.113023E-02   5.885802E-02   8.795109E-02   3.480904E-01   2.456536E-01   4.494332E-01   2.674362E-01   7.141574E-02   9.021926E-02   8.511563E-02
   4.557412E-02   5.439029E-02   3.846523E-02   2.927431E-02   4.351385E-02   6.125355E-02   5.927394E-02   1.862797E-02   1.842434E-02   6.318265E-02   3.220978E-02   1.239786E-01   2.271842E-01   1.618922E-01   9.440116E-02   1.415298E-01   3.968459E-01   9.859626E-02   1.989868E-01   1.458086E-01   1.252130E-01   3.528057E-02   1.257864E-02   2.389646E-02   3.458566E-02   7.633317E-02   4.890876E-02   8.996682E-02   7.383902E-02   8.073065E-02   2.641017E-01   1.636773E-01   1.195872E-01   1.071368E-01   1.040861E-01   3.812536E-02   3.238308E-02   2.619660E-02   4.813984E-02   5.937269E-02   3.286651E-02   3.225042E-02   3.052800E-02   3.985989E-02   3.402322E-02   8.767053E-02   9.869090E-02   2.042677E-01   8.395617E-02   4.928325E-02   2.575473E-02   5.668145E-02   2.542083E-02   6.300660E-02   3.433144E-02   2.842685E-02   2.042453E-02   4.189806E-02   4.577556E-02   3.009064E-02   2.042426E-02   5.477204E-02   5.776965E-02   3.329227E-02   1.272632E-01   5.795760E-02   1.643812E-01   8.383230E-02   8.597512E-02   7.206544E-02   2.182499E-01   1.058224E-01   1.169321E-01   3.127053E-02   3.740203E-02   6.235128E-02   2.101227E-02   1.585374E-02   7.462812E-03   7.083784E-03   5.408196E-03   7.457591E-03   1.623950E-02   3.445636E-02   5.280878E-02   2.699821E-02   2.237814E-02   2.051027E-02   4.611663E-02   4.939485E-02   4.939485E-02   1.019821E-01   3.345176E-02   3.345176E-02   1.853366E-02   5.353205E-02   5.353205E-02   9.055170E-02   9.055170E-02   9.055170E-02   6.284963E-02   6.284963E-02   6.284963E-02   1.293599E-01   1.293599E-01   1.293599E-01   1.293599E-01   1.293599E-01   8.689559E-02   8.689559E-02   8.689559E-02   8.689559E-02   8.689559E-02   8.482375E-02   8.482375E-02   8.482375E-02   8.482375E-02   8.482375E-02   8.482375E-02   8.482375E-02   1.808423E-01   1.808423E-01   1.808423E-01   1.808423E-01   1.808423E-01   1.808423E-01   1.808423E-01   1.808423E-01   1.808423E-01   1.808423E-01   1.588335E-01   1.588335E-01   1.588335E-01   1.588335E-01   1.588335E-01   1.588335E-01   1.588335E-01   1.588335E-01   1.588335E-01   1.891880E-01   1.891880E-01   1.891880E-01   1.891880E-01   1.891880E-01   1.891880E-01   1.891880E-01   3.353152E-01   3.353152E-01   3.353152E-01   3.353152E-01   3.353152E-01   8.331783E-02   8.331783E-02   8.331783E-02   8.331783E-02   6.153553E-02   6.153553E-02   6.153553E-02   1.111471E-02   1.111471E-02   2.409621E-02   2.409621E-02   1.832292E-02   1.832292E-02   7.221542E-02   1.142928E-01   6.131828E-02   6.131828E-02   1.791744E-02   1.344693E-02   1.569417E-02   2.042624E-02   1.697435E-02   4.209197E-02   7.080996E-02   1.024006E-01   1.042229E-01   1.073085E-01   6.568076E-02   3.544969E-02   8.664750E-02   5.555723E-02   2.827151E-02   1.191969E-02   1.566134E-02   7.004284E-03   1.849933E-02   1.586824E-02   7.099427E-02   7.177643E-02   3.106563E-02   1.982421E-02   6.301398E-02   3.061496E-02   1.385765E-02   1.485478E-02   2.267214E-02   4.327896E-02   7.606227E-02   5.570641E-02   1.027986E-01   1.908828E-01   1.481128E-01   1.409754E-01   1.379932E-01   5.687091E-02   5.121918E-02
   4.422527E-02   6.623981E-02   1.182378E-01   5.903701E-02   5.523613E-02   1.102036E-01   5.222419E-02   2.713876E-02   2.672163E-02   7.057565E-02   8.019315E-02   9.953332E-02   2.662725E-01   9.160366E-02   5.645954E-02   1.975418E-01   1.562855E-01   1.885167E-01   1.724725E-01   1.278291E-01   9.442809E-02   3.352431E-02   1.780031E-02   2.109970E-02   4.515626E-02   3.123919E-02   4.660746E-02   6.530449E-02   9.522423E-02   1.156706E-01   1.705589E-01   1.548253E-01   9.294941E-02   4.967378E-02   4.752811E-02   1.883577E-02   1.363299E-02   4.064965E-02   4.344717E-02   4.004190E-02   5.427280E-02   4.747899E-02   2.221665E-02   4.195058E-02   8.687180E-02   1.790648E-01   1.351317E-01   1.010927E-01   5.882075E-02   4.406844E-02   1.569605E-02   4.934099E-02   3.309599E-02   7.084154E-02   5.401842E-02   6.040529E-02   3.107488E-02   8.734358E-02   1.106661E-01   4.434626E-02   2.802787E-02   6.399162E-02   7.964366E-02   4.549865E-02   1.261779E-01   7.484788E-02   1.834113E-01   1.314749E-01   1.626005E-01   1.251960E-01   1.478698E-01   8.651312E-02   1.059556E-01   3.453991E-02   3.748321E-02   9.019370E-02   9.809058E-03   1.102980E-02   7.986722E-03   7.540900E-03   1.164872E-02   7.264298E-03   2.882734E-02   6.176341E-02   4.751703E-02   2.381404E-02   2.641528E-02   1.649051E-02   3.516065E-02   4.533074E-02   4.533074E-02   4.526392E-02   1.992230E-02   1.992230E-02   2.131654E-02   3.519835E-02   3.519835E-02   1.124957E-01   1.124957E-01   1.124957E-01   4.913610E-02   4.913610E-02   4.913610E-02   3.983961E-02   3.983961E-02   3.983961E-02   3.983961E-02   3.983961E-02   9.020375E-02   9.020375E-02   9.020375E-02   9.020375E-02   9.020375E-02   7.894263E-02   7.894263E-02   7.894263E-02   7.894263E-02   7.894263E-02   7.894263E-02   7.894263E-02   1.559338E-01   1.559338E-01   1.559338E-01   1.559338E-01   1.559338E-01   1.559338E-01   1.559338E-01   1.559338E-01   1.559338E-01   1.559338E-01   1.745447E-01   1.745447E-01   1.745447E-01   1.745447E-01   1.745447E-01   1.745447E-01   1.745447E-01   1.745447E-01   1.745447E-01   9.787115E-02   9.787115E-02   9.787115E-02   9.787115E-02   9.787115E-02   9.787115E-02   9.787115E-02   1.271042E-01   1.271042E-01   1.271042E-01   1.271042E-01   1.271042E-01   1.324818E-01   1.324818E-01   1.324818E-01   1.324818E-01   4.286575E-02   4.286575E-02   4.286575E-02   1.732173E-02   1.732173E-02   1.718150E-02   1.718150E-02   3.801928E-02   3.801928E-02   1.084022E-01   1.290844E-01   2.950635E-02   2.950635E-02   3.565786E-02   2.383241E-02   1.762475E-02   1.071764E-02   4.411089E-02   7.540216E-02   6.221748E-02   1.002922E-01   4.987136E-02   5.495188E-02   6.333473E-02   3.932401E-02   6.489845E-02   5.703070E-02   2.363298E-02   1.284567E-02   1.449051E-02   8.046465E-03   1.561730E-02   1.729676E-02   3.267529E-02   7.376752E-02   7.556168E-02   1.125483E-01   6.991962E-02   3.459094E-02   1.973539E-02   9.824755E-03   3.362243E-02   6.935605E-02   4.166903E-02   7.687955E-02   1.137960E-01   1.126327E-01   1.436297E-01   9.657364E-02   1.610422E-01   1.109284E-01   5.343108E-02
   3.263935E-02   5.131366E-02   1.387030E-01   2.888159E-01   1.729870E-01   1.536295E-01   7.638405E-02   4.162526E-02   1.315773E-02   1.077354E-01   1.307102E-01   1.280334E-01   2.307477E-01   3.532264E-02   4.938042E-02   7.741050E-02   1.411337E-01   2.087014E-01   1.333476E-01   1.330058E-01   2.054882E-01   7.051539E-02   2.304738E-02   2.170665E-02   3.887858E-02   2.111732E-02   8.006395E-02   1.285716E-01   1.356587E-01   1.446083E-01   2.232264E-01   9.238674E-02   5.419158E-02   3.490175E-02   2.671552E-02   3.442501E-02   2.363766E-02   6.858563E-02   2.890972E-02   4.691280E-02   9.796543E-02   6.289972E-02   2.831433E-02   3.881631E-02   2.521904E-01   2.404990E-01   1.559721E-01   6.356395E-02   8.788661E-02   3.338011E-02   2.642079E-02   6.014923E-02   2.665708E-02   2.490925E-01   1.509284E-01   4.676706E-02   3.921125E-02   5.070231E-02   1.254251E-01   8.357119E-02   1.033543E-01   5.419558E-02   8.824963E-02   4.627514E-02   6.422352E-02   7.937592E-02   2.025008E-01   2.397714E-01   2.177552E-01   1.020716E-01   1.430072E-01   1.082156E-01   8.935793E-02   5.462516E-02   8.311647E-02   5.507789E-02   8.417397E-03   4.625130E-03   5.666597E-03   7.987436E-03   1.118631E-02   9.483118E-03   4.878759E-02   1.007749E-01   3.236912E-02   3.148557E-02   2.377639E-02   2.345918E-02   1.793391E-02   4.977563E-02   4.977563E-02   1.825670E-02   2.044721E-02   2.044721E-02   2.247634E-02   3.907652E-02   3.907652E-02   3.486505E-02   3.486505E-02   3.486505E-02   3.378542E-02   3.378542E-02   3.378542E-02   4.736676E-02   4.736676E-02   4.736676E-02   4.736676E-02   4.736676E-02   1.482272E-01   1.482272E-01   1.482272E-01   1.482272E-01   1.482272E-01   7.139128E-02   7.139128E-02   7.139128E-02   7.139128E-02   7.139128E-02   7.139128E-02   7.139128E-02   1.255126E-01   1.255126E-01   1.255126E-01   1.255126E-01   1.255126E-01   1.255126E-01   1.255126E-01   1.255126E-01   1.255126E-01   1.255126E-01   4.155965E-02   4.155965E-02   4.155965E-02   4.155965E-02   4.155965E-02   4.155965E-02   4.155965E-02   4.155965E-02   4.155965E-02   5.025753E-02   5.025753E-02   5.025753E-02   5.025753E-02   5.025753E-02   5.025753E-02   5.025753E-02   1.182223E-01   1.182223E-01   1.182223E-01   1.182223E-01   1.182223E-01   1.313473E-01   1.313473E-01   1.313473E-01   1.313473E-01   4.943946E-02   4.943946E-02   4.943946E-02   3.412645E-02   3.412645E-02   1.966841E-02   1.966841E-02   4.384826E-02   4.384826E-02   1.471032E-01   8.403958E-02   2.255334E-02   2.255334E-02   3.093553E-02   1.595687E-02   5.111009E-02   2.133160E-02   5.844884E-02   8.953638E-02   5.851137E-02   7.109397E-02   1.084949E-01   6.307938E-02   9.641998E-02   7.214383E-02   1.034291E-01   7.280941E-02   1.299546E-02   1.745851E-02   1.241488E-02   1.180094E-02   1.498427E-02   1.584605E-02   4.892930E-02   7.354810E-02   5.206356E-02   8.495194E-02   2.632866E-02   2.042920E-02   2.749221E-02   1.096543E-02   2.248352E-02   8.312833E-02   6.195613E-02   6.962975E-02   6.417300E-02   7.681500E-02   1.012901E-01   5.831078E-02   6.873445E-02   9.980668E-02   4.983637E-02