# LPF package for  MODFLOW-2005, generated by Flopy.
        53    -1E+30         0  
         1
         0
   0.000000E+00
         0
         0
INTERNAL               1 (207E15.6) -1 #hk layer 1                    
   4.854213E-02   1.381605E-01   9.975161E-02   1.391969E-01   1.131486E-01   2.306591E-01   5.302437E-02   2.867927E-02   3.125393E-02   2.947285E-02   2.700215E-02   2.689569E-02   4.196244E-02   2.160084E-02   2.377453E-02   4.350648E-02   2.920386E-02   9.998957E-03   6.622026E-03   1.633755E-02   2.849959E-02   5.954050E-02   4.051052E-02   4.522467E-02   6.196022E-02   1.879306E-01   6.795486E-02   2.872763E-02   2.748476E-02   2.444304E-02   1.283199E-02   4.111800E-02   6.767546E-02   1.050120E-01   9.620597E-02   3.559862E-01   3.281997E-01   3.732426E-01   1.408999E-01   1.305009E-01   3.530745E-02   6.739751E-03   2.922611E-02   5.168558E-02   6.741173E-02   3.542318E-02   7.105623E-02   1.585669E-01   1.831819E-01   6.581389E-02   1.815481E-02   1.801061E-02   3.612874E-02   3.902121E-02   3.046522E-02   3.284888E-02   2.502664E-02   1.772720E-02   2.236607E-02   2.122751E-02   1.313115E-02   1.865094E-02   1.508297E-02   1.699742E-02   1.482118E-02   2.976018E-02   2.443046E-01   2.957124E-01   2.450864E-01   1.437284E-01   1.156816E-01   5.489391E-02   6.161736E-02   2.115965E-02   5.140359E-02   5.757186E-02   6.808292E-02   6.651740E-02   1.195821E-01   3.605339E-02   6.331892E-02   2.106233E-02   8.412992E-03   4.400702E-03   1.522717E-02   1.315351E-02   1.999465E-02   1.134106E-02   3.107027E-02   1.121541E-01   1.121541E-01   5.742252E-02   4.206262E-02   4.206262E-02   2.089724E-02   1.753902E-02   1.753902E-02   2.010636E-02   2.010636E-02   2.010636E-02   4.775275E-02   4.775275E-02   4.775275E-02   8.324349E-02   8.324349E-02   8.324349E-02   8.324349E-02   8.324349E-02   3.241821E-01   3.241821E-01   3.241821E-01   3.241821E-01   3.241821E-01   8.422999E-01   8.422999E-01   8.422999E-01   8.422999E-01   8.422999E-01   8.422999E-01   8.422999E-01   3.065668E-01   3.065668E-01   3.065668E-01   3.065668E-01   3.065668E-01   3.065668E-01   3.065668E-01   3.065668E-01   3.065668E-01   3.065668E-01   2.063645E-01   2.063645E-01   2.063645E-01   2.063645E-01   2.063645E-01   2.063645E-01   2.063645E-01   2.063645E-01   2.063645E-01   6.187388E-02   6.187388E-02   6.187388E-02   6.187388E-02   6.187388E-02   6.187388E-02   6.187388E-02   4.485330E-02   4.485330E-02   4.485330E-02   4.485330E-02   4.485330E-02   4.163723E-02   4.163723E-02   4.163723E-02   4.163723E-02   2.041332E-02   2.041332E-02   2.041332E-02   9.894661E-03   9.894661E-03   6.944608E-03   6.944608E-03   9.053122E-03   9.053122E-03   7.366266E-03   7.587651E-03   2.395174E-02   2.395174E-02   3.271211E-02   7.955839E-02   1.457179E-01   1.436634E-01   1.541925E-01   2.041250E-01   1.198865E-01   2.180486E-01   1.746710E-01   1.015729E-01   3.140124E-02   4.433853E-02   1.532782E-02   9.417511E-03   1.147589E-02   1.681402E-02   1.915089E-02   6.764689E-02   3.560425E-02   2.129841E-02   2.672807E-02   2.316314E-02   7.749402E-03   1.968811E-02   2.278416E-02   6.370773E-02   3.251033E-02   3.397183E-01   3.865554E-01   2.978437E-01   1.103843E-01   4.388840E-02   5.364472E-02   8.251166E-02   3.901978E-02   1.667548E-02   3.253374E-02   2.535493E-02   3.473958E-02
   3.699711E-02   9.918647E-02   1.963034E-01   2.015906E-01   1.337108E-01   1.678215E-01   4.468760E-02   3.246108E-02   2.964169E-02   6.576288E-02   2.487808E-02   2.174024E-02   3.327755E-02   4.283557E-02   4.328822E-02   6.712940E-02   3.315672E-02   1.698659E-02   1.989880E-02   1.473042E-02   2.985507E-02   8.076265E-02   8.366781E-02   3.094137E-02   6.399456E-02   8.150467E-02   4.965090E-02   3.516770E-02   5.370609E-02   4.446163E-02   2.902401E-02   2.667332E-02   4.636535E-02   2.528469E-02   4.416716E-02   1.018048E-01   1.872570E-01   1.601369E-01   1.374565E-01   1.684458E-01   6.710923E-02   9.789142E-03   4.441795E-02   2.737789E-02   4.168072E-02   7.936273E-02   7.327265E-02   1.620150E-01   2.581402E-01   1.032840E-01   2.234510E-02   9.319988E-03   1.958263E-02   2.512811E-02   5.289362E-02   2.942569E-02   1.269864E-02   5.549922E-03   1.004291E-02   8.620297E-03   3.920007E-02   2.299731E-02   3.678706E-02   1.365445E-02   2.078051E-02   3.001950E-02   1.899168E-01   2.892480E-01   3.099060E-01   1.981335E-01   1.138219E-01   8.736168E-02   4.763113E-02   1.897854E-02   7.843290E-02   2.836919E-02   4.346236E-02   5.466884E-02   8.076626E-02   2.692783E-02   5.632969E-02   2.988133E-02   1.726887E-02   1.327568E-02   5.046082E-02   1.420357E-02   1.785695E-02   2.330329E-02   2.175215E-02   5.612488E-02   5.612488E-02   4.231506E-02   4.453221E-02   4.453221E-02   2.434706E-02   2.199689E-02   2.199689E-02   2.248845E-02   2.248845E-02   2.248845E-02   8.325512E-02   8.325512E-02   8.325512E-02   1.716272E-01   1.716272E-01   1.716272E-01   1.716272E-01   1.716272E-01   4.708354E-01   4.708354E-01   4.708354E-01   4.708354E-01   4.708354E-01   1.003387E+00   1.003387E+00   1.003387E+00   1.003387E+00   1.003387E+00   1.003387E+00   1.003387E+00   3.881380E-01   3.881380E-01   3.881380E-01   3.881380E-01   3.881380E-01   3.881380E-01   3.881380E-01   3.881380E-01   3.881380E-01   3.881380E-01   2.575033E-01   2.575033E-01   2.575033E-01   2.575033E-01   2.575033E-01   2.575033E-01   2.575033E-01   2.575033E-01   2.575033E-01   6.229208E-02   6.229208E-02   6.229208E-02   6.229208E-02   6.229208E-02   6.229208E-02   6.229208E-02   6.597606E-02   6.597606E-02   6.597606E-02   6.597606E-02   6.597606E-02   2.342231E-02   2.342231E-02   2.342231E-02   2.342231E-02   2.155586E-02   2.155586E-02   2.155586E-02   5.569090E-03   5.569090E-03   8.231181E-03   8.231181E-03   6.752412E-03   6.752412E-03   1.167031E-02   6.280262E-03   1.673433E-02   1.673433E-02   2.006336E-02   1.177822E-01   1.285433E-01   1.534192E-01   1.251983E-01   1.397989E-01   1.941084E-01   3.183047E-01   3.127650E-01   9.809387E-02   5.289821E-02   6.298313E-02   3.905360E-02   1.844309E-02   1.213851E-02   2.278075E-02   1.289540E-02   3.125788E-02   2.277559E-02   2.152169E-02   2.431677E-02   2.931121E-02   1.114244E-02   5.563376E-02   3.783737E-02   5.417097E-02   9.132287E-02   4.064308E-01   2.892317E-01   1.924613E-01   5.953705E-02   2.145240E-02   9.435099E-02   8.940026E-02   5.657727E-02   1.641052E-02   1.843215E-02   2.302864E-02   3.097759E-02
   2.393490E-02   8.218084E-02   1.145063E-01   4.062694E-01   4.091896E-01   2.377447E-01   9.559677E-02   4.342829E-02   2.426032E-02   4.406431E-02   1.778732E-02   4.726597E-02   4.080622E-02   6.577202E-02   1.560830E-01   1.298700E-01   3.721762E-02   3.664966E-02   1.723236E-02   1.440014E-02   5.116155E-02   9.699614E-02   9.219645E-02   6.012050E-02   2.540723E-02   3.014285E-02   3.865533E-02   4.720585E-02   2.835992E-02   2.006481E-02   4.670863E-02   4.705566E-02   7.918037E-02   3.111635E-02   3.301676E-02   3.526542E-02   1.089540E-01   2.202944E-01   2.159136E-01   1.914745E-01   8.347961E-02   1.619913E-02   4.612856E-02   2.628582E-02   5.236236E-02   5.863629E-02   3.591822E-02   1.176395E-01   1.654921E-01   9.726707E-02   2.697739E-02   2.004698E-02   1.463207E-02   3.221991E-02   7.125068E-02   1.731050E-02   1.032660E-02   4.143357E-03   1.061909E-02   7.606138E-03   4.155355E-02   2.204101E-02   3.670742E-02   2.095822E-02   1.787965E-02   3.532262E-02   1.060340E-01   9.226103E-02   1.531727E-01   2.286626E-01   2.421643E-01   1.432473E-01   3.791866E-02   2.035887E-02   3.604911E-02   1.075756E-02   1.548152E-02   4.535852E-02   8.069227E-02   3.237637E-02   2.904293E-02   4.277710E-02   4.090343E-02   2.482866E-02   1.934171E-02   1.288438E-02   2.120703E-02   1.418079E-02   3.136016E-02   5.004744E-02   5.004744E-02   3.555555E-02   6.150792E-02   6.150792E-02   2.699704E-02   2.217927E-02   2.217927E-02   2.153569E-02   2.153569E-02   2.153569E-02   1.086644E-01   1.086644E-01   1.086644E-01   3.229232E-01   3.229232E-01   3.229232E-01   3.229232E-01   3.229232E-01   4.139190E-01   4.139190E-01   4.139190E-01   4.139190E-01   4.139190E-01   8.503311E-01   8.503311E-01   8.503311E-01   8.503311E-01   8.503311E-01   8.503311E-01   8.503311E-01   3.958390E-01   3.958390E-01   3.958390E-01   3.958390E-01   3.958390E-01   3.958390E-01   3.958390E-01   3.958390E-01   3.958390E-01   3.958390E-01   8.900244E-02   8.900244E-02   8.900244E-02   8.900244E-02   8.900244E-02   8.900244E-02   8.900244E-02   8.900244E-02   8.900244E-02   5.195414E-02   5.195414E-02   5.195414E-02   5.195414E-02   5.195414E-02   5.195414E-02   5.195414E-02   3.543579E-02   3.543579E-02   3.543579E-02   3.543579E-02   3.543579E-02   2.451279E-02   2.451279E-02   2.451279E-02   2.451279E-02   2.968823E-02   2.968823E-02   2.968823E-02   8.286614E-03   8.286614E-03   1.451534E-02   1.451534E-02   5.297891E-03   5.297891E-03   3.846280E-03   9.942957E-03   1.172199E-02   1.172199E-02   1.869341E-02   8.267917E-02   5.804794E-02   2.744724E-01   2.647097E-01   1.360669E-01   1.474860E-01   1.173446E-01   1.324310E-01   8.566354E-02   2.903494E-02   2.538160E-02   1.928528E-02   1.366511E-02   1.446380E-02   1.481559E-02   1.099976E-02   2.996532E-02   2.871347E-02   2.411013E-02   3.114702E-02   1.796093E-02   6.401944E-03   1.763956E-02   3.513846E-02   3.761880E-02   1.007605E-01   6.536598E-01   3.962035E-01   2.052267E-01   4.675690E-02   7.351948E-02   9.815916E-02   1.650364E-01   1.321461E-01   2.910290E-02   1.034478E-02   2.083314E-02   1.705278E-02
   2.966883E-02   3.961698E-02   1.155804E-01   3.149439E-01   4.603881E-01   2.642629E-01   1.166382E-01   3.296033E-02   2.957291E-02   2.786259E-02   3.095960E-02   4.729541E-02   4.601528E-02   1.708845E-01   3.298010E-01   1.533554E-01   5.025542E-02   2.098523E-02   2.593611E-02   3.271003E-02   7.481056E-02   5.663612E-02   8.946623E-02   3.960094E-02   1.995040E-02   1.400582E-02   3.006375E-02   7.301971E-02   5.420804E-02   7.912352E-02   4.948323E-02   5.286914E-02   3.875493E-02   4.324459E-02   2.022417E-02   1.371701E-01   7.670468E-02   1.120614E-01   1.317724E-01   1.573295E-01   1.307369E-01   1.453369E-02   2.660929E-02   2.403265E-02   4.690429E-02   2.585948E-02   2.632608E-02   9.485797E-02   3.210498E-01   1.020997E-01   5.017013E-02   2.499526E-02   1.128537E-02   3.592386E-02   3.763829E-02   2.204254E-02   8.152412E-03   4.767404E-03   2.068588E-02   2.439444E-02   2.410595E-02   1.902997E-02   1.392655E-02   1.894948E-02   1.630250E-02   5.947808E-02   1.311922E-01   1.782764E-01   2.960323E-01   1.364336E-01   2.856773E-01   6.710616E-02   6.200845E-02   1.511591E-01   3.386671E-02   3.638187E-03   7.914291E-03   4.277645E-02   1.709067E-01   4.637396E-02   5.314048E-02   8.388377E-02   1.648756E-01   3.677783E-02   3.002134E-02   2.828934E-02   2.629989E-02   1.605700E-02   4.445603E-02   3.555652E-02   3.555652E-02   2.565993E-02   4.172096E-02   4.172096E-02   4.975184E-02   2.926989E-02   2.926989E-02   1.702178E-02   1.702178E-02   1.702178E-02   1.513457E-01   1.513457E-01   1.513457E-01   4.599321E-01   4.599321E-01   4.599321E-01   4.599321E-01   4.599321E-01   5.137513E-01   5.137513E-01   5.137513E-01   5.137513E-01   5.137513E-01   4.645175E-01   4.645175E-01   4.645175E-01   4.645175E-01   4.645175E-01   4.645175E-01   4.645175E-01   3.035154E-01   3.035154E-01   3.035154E-01   3.035154E-01   3.035154E-01   3.035154E-01   3.035154E-01   3.035154E-01   3.035154E-01   3.035154E-01   1.351326E-01   1.351326E-01   1.351326E-01   1.351326E-01   1.351326E-01   1.351326E-01   1.351326E-01   1.351326E-01   1.351326E-01   9.142675E-02   9.142675E-02   9.142675E-02   9.142675E-02   9.142675E-02   9.142675E-02   9.142675E-02   3.636969E-02   3.636969E-02   3.636969E-02   3.636969E-02   3.636969E-02   3.677780E-02   3.677780E-02   3.677780E-02   3.677780E-02   1.789946E-02   1.789946E-02   1.789946E-02   2.356103E-02   2.356103E-02   2.197787E-02   2.197787E-02   1.367708E-02   1.367708E-02   6.408372E-03   4.062397E-03   9.597735E-03   9.597735E-03   4.594895E-02   4.739170E-02   2.264039E-02   6.581343E-02   1.858458E-01   2.386536E-01   4.972976E-02   6.944720E-02   8.325624E-02   8.235593E-02   4.419617E-02   6.142469E-02   3.765097E-02   2.651774E-02   1.714899E-02   1.893865E-02   1.194791E-02   2.674980E-02   2.994144E-02   2.819495E-02   2.547045E-02   1.231890E-02   9.307291E-03   4.545551E-03   2.075390E-02   5.674582E-02   1.643925E-01   7.104974E-01   3.126674E-01   9.151704E-02   5.974028E-02   6.521407E-02   1.824451E-01   1.421003E-01   1.226655E-01   2.014839E-02   9.739335E-03   1.301940E-02   8.645048E-03
   3.893022E-02   4.256102E-02   8.573102E-02   4.299670E-01   3.113025E-01   3.556314E-01   1.158809E-01   3.498493E-02   4.868386E-02   4.127619E-02   2.103847E-02   4.166262E-02   8.255556E-02   2.096461E-01   5.860093E-01   8.802744E-02   3.854873E-02   4.719311E-02   3.805393E-02   4.097881E-02   6.200221E-02   7.079987E-02   4.898514E-02   1.875155E-02   3.161272E-02   1.205860E-02   3.229214E-02   7.715318E-02   5.076807E-02   4.740573E-02   8.110368E-02   1.244382E-01   3.470667E-02   4.265919E-02   5.091542E-02   8.171455E-02   7.654968E-02   9.461217E-02   1.236510E-01   1.884409E-01   8.243854E-02   2.161700E-02   3.245734E-02   1.946169E-02   6.268942E-02   4.018764E-02   3.464466E-02   5.467762E-02   1.412397E-01   1.078378E-01   1.439086E-01   4.112907E-02   2.039471E-02   4.062806E-02   2.954024E-02   3.648368E-02   1.383361E-02   1.982553E-02   3.218582E-02   3.101064E-02   2.604617E-02   3.232288E-02   4.860471E-02   4.239113E-02   4.080632E-02   6.493914E-02   9.059477E-02   9.795818E-02   2.140485E-01   9.004430E-02   8.409569E-02   6.501776E-02   3.323201E-02   6.687208E-02   3.324344E-02   1.190486E-02   1.818153E-02   8.201598E-02   1.263364E-01   8.495776E-02   6.387334E-02   5.143796E-02   1.811466E-01   6.426010E-02   3.361746E-02   1.860329E-02   1.037789E-02   1.487937E-02   4.141299E-02   2.456048E-02   2.456048E-02   2.914820E-02   3.463890E-02   3.463890E-02   3.078772E-02   2.493863E-02   2.493863E-02   2.417971E-02   2.417971E-02   2.417971E-02   1.383097E-01   1.383097E-01   1.383097E-01   3.159410E-01   3.159410E-01   3.159410E-01   3.159410E-01   3.159410E-01   1.477139E-01   1.477139E-01   1.477139E-01   1.477139E-01   1.477139E-01   2.800006E-01   2.800006E-01   2.800006E-01   2.800006E-01   2.800006E-01   2.800006E-01   2.800006E-01   2.103953E-01   2.103953E-01   2.103953E-01   2.103953E-01   2.103953E-01   2.103953E-01   2.103953E-01   2.103953E-01   2.103953E-01   2.103953E-01   1.415062E-01   1.415062E-01   1.415062E-01   1.415062E-01   1.415062E-01   1.415062E-01   1.415062E-01   1.415062E-01   1.415062E-01   5.567844E-02   5.567844E-02   5.567844E-02   5.567844E-02   5.567844E-02   5.567844E-02   5.567844E-02   2.007885E-02   2.007885E-02   2.007885E-02   2.007885E-02   2.007885E-02   2.435534E-02   2.435534E-02   2.435534E-02   2.435534E-02   1.561076E-02   1.561076E-02   1.561076E-02   2.644135E-02   2.644135E-02   2.130289E-02   2.130289E-02   8.291150E-03   8.291150E-03   5.948699E-03   5.319369E-03   6.373158E-03   6.373158E-03   3.438844E-02   2.628014E-02   3.955939E-02   5.005973E-02   7.623172E-02   8.050480E-02   9.110350E-02   4.071799E-02   1.423220E-01   1.163847E-01   4.864822E-02   1.156920E-01   5.927377E-02   3.991533E-02   1.570017E-02   4.544835E-02   3.826881E-02   4.602683E-02   1.101188E-01   6.439676E-02   2.347291E-02   1.644436E-02   5.456516E-03   3.836980E-03   1.028389E-02   5.042843E-02   9.169167E-02   2.082795E-01   2.446601E-01   1.420511E-01   1.140742E-01   2.608244E-01   8.765829E-02   1.304796E-01   1.386534E-01   3.835300E-02   6.237484E-03   1.198008E-02   1.816900E-02
   3.321139E-02   5.022065E-02   6.481369E-02   1.790740E-01   4.430935E-01   2.980110E-01   1.779777E-01   5.524098E-02   5.687889E-02   5.806286E-02   2.463494E-02   2.037378E-02   1.590220E-01   2.560515E-01   2.642947E-01   1.628515E-01   2.876851E-02   2.300365E-02   3.145640E-02   5.661329E-02   4.574595E-02   4.085106E-02   2.444288E-02   1.640201E-02   3.993951E-02   1.113462E-02   2.469042E-02   6.223887E-02   6.734510E-02   5.634595E-02   1.056104E-01   9.694428E-02   2.498464E-02   5.006563E-02   9.333503E-02   6.625178E-02   7.045458E-02   8.985495E-02   9.399658E-02   1.601166E-01   1.245024E-01   4.294732E-02   2.427111E-02   2.224227E-02   5.743408E-02   4.328480E-02   4.844549E-02   6.524928E-02   9.126025E-02   2.707334E-02   6.029736E-02   8.311101E-02   2.520978E-02   5.891584E-02   3.650280E-02   4.131780E-02   1.217589E-02   1.255725E-02   3.310229E-02   5.531454E-02   5.165375E-02   3.854486E-02   1.124030E-01   6.907367E-02   5.051237E-02   5.558375E-02   9.062142E-02   1.804887E-01   1.347326E-01   5.845705E-02   2.063418E-02   4.567565E-02   2.697775E-02   3.703113E-02   3.204203E-02   2.150081E-02   1.775726E-02   4.624389E-02   1.734390E-01   1.455045E-01   1.033510E-01   8.116195E-02   1.420035E-01   8.157983E-02   7.879677E-02   1.517610E-02   1.838205E-02   1.188774E-02   3.590981E-02   1.252644E-02   1.252644E-02   2.062301E-02   2.252586E-02   2.252586E-02   5.002123E-02   3.631172E-02   3.631172E-02   3.841082E-02   3.841082E-02   3.841082E-02   9.979323E-02   9.979323E-02   9.979323E-02   1.723487E-01   1.723487E-01   1.723487E-01   1.723487E-01   1.723487E-01   7.148825E-02   7.148825E-02   7.148825E-02   7.148825E-02   7.148825E-02   1.335604E-01   1.335604E-01   1.335604E-01   1.335604E-01   1.335604E-01   1.335604E-01   1.335604E-01   1.056872E-01   1.056872E-01   1.056872E-01   1.056872E-01   1.056872E-01   1.056872E-01   1.056872E-01   1.056872E-01   1.056872E-01   1.056872E-01   8.338449E-02   8.338449E-02   8.338449E-02   8.338449E-02   8.338449E-02   8.338449E-02   8.338449E-02   8.338449E-02   8.338449E-02   5.504593E-02   5.504593E-02   5.504593E-02   5.504593E-02   5.504593E-02   5.504593E-02   5.504593E-02   2.085462E-02   2.085462E-02   2.085462E-02   2.085462E-02   2.085462E-02   2.053626E-02   2.053626E-02   2.053626E-02   2.053626E-02   1.953153E-02   1.953153E-02   1.953153E-02   2.027845E-02   2.027845E-02   1.544303E-02   1.544303E-02   6.942193E-03   6.942193E-03   9.903064E-03   3.616785E-03   9.071304E-03   9.071304E-03   3.354895E-02   1.859477E-02   1.841129E-02   7.973955E-02   8.770566E-02   3.906017E-02   1.035482E-01   1.047380E-01   1.429217E-01   7.947884E-02   4.075014E-02   1.027582E-01   1.430011E-01   6.498373E-02   2.611185E-02   6.880115E-02   6.942697E-02   8.920081E-02   1.473214E-01   6.295112E-02   3.680556E-02   2.292110E-02   1.227796E-02   3.688025E-03   4.395445E-03   2.160804E-02   9.012452E-02   3.385586E-01   1.039524E-01   1.457652E-01   9.155586E-02   1.816234E-01   5.848279E-02   1.093623E-01   4.166506E-02   4.558004E-02   1.369050E-02   1.354860E-02   1.870126E-02
   3.473195E-02   5.325990E-02   6.985971E-02   1.132425E-01   3.006553E-01   5.377285E-01   3.394676E-01   1.266095E-01   8.794466E-02   8.103267E-02   6.919391E-02   2.552479E-02   2.074131E-01   2.188217E-01   3.540748E-01   3.288929E-01   5.778721E-02   2.308910E-02   8.461595E-02   6.239963E-02   2.869334E-02   2.812146E-02   2.743551E-02   3.583854E-02   5.314543E-02   9.466208E-03   1.924187E-02   4.593315E-02   1.839529E-01   1.550479E-01   2.306725E-01   5.206303E-02   4.099859E-02   2.893081E-02   9.002442E-02   6.285763E-02   5.933155E-02   9.326591E-02   1.506760E-01   1.998153E-01   2.679581E-01   6.837223E-02   4.197779E-02   3.542493E-02   5.958873E-02   6.347512E-02   4.128228E-02   5.087579E-02   9.132262E-02   3.771649E-02   6.028400E-02   6.182494E-02   3.314557E-02   3.415323E-02   2.796745E-02   2.532269E-02   1.603730E-02   1.032077E-02   5.050981E-02   1.293608E-01   1.095769E-01   5.791441E-02   5.056537E-02   4.543424E-02   5.858955E-02   6.557145E-02   1.943834E-01   2.740910E-01   6.907845E-02   2.463358E-02   2.686546E-02   2.653397E-02   2.398703E-02   2.799560E-02   5.486990E-02   2.590280E-02   2.500415E-02   2.223835E-02   9.345981E-02   1.426469E-01   1.406602E-01   8.905133E-02   4.022685E-02   5.440270E-02   4.594911E-02   1.579199E-02   2.204108E-02   2.556831E-02   2.350823E-02   1.344744E-02   1.344744E-02   2.649136E-02   2.182901E-02   2.182901E-02   5.388577E-02   3.630413E-02   3.630413E-02   5.482051E-02   5.482051E-02   5.482051E-02   3.976206E-02   3.976206E-02   3.976206E-02   9.377253E-02   9.377253E-02   9.377253E-02   9.377253E-02   9.377253E-02   6.697778E-02   6.697778E-02   6.697778E-02   6.697778E-02   6.697778E-02   8.133920E-02   8.133920E-02   8.133920E-02   8.133920E-02   8.133920E-02   8.133920E-02   8.133920E-02   8.666437E-02   8.666437E-02   8.666437E-02   8.666437E-02   8.666437E-02   8.666437E-02   8.666437E-02   8.666437E-02   8.666437E-02   8.666437E-02   6.050923E-02   6.050923E-02   6.050923E-02   6.050923E-02   6.050923E-02   6.050923E-02   6.050923E-02   6.050923E-02   6.050923E-02   4.994208E-02   4.994208E-02   4.994208E-02   4.994208E-02   4.994208E-02   4.994208E-02   4.994208E-02   3.157981E-02   3.157981E-02   3.157981E-02   3.157981E-02   3.157981E-02   5.128545E-02   5.128545E-02   5.128545E-02   5.128545E-02   1.444422E-02   1.444422E-02   1.444422E-02   2.270174E-02   2.270174E-02   1.870430E-02   1.870430E-02   2.152660E-02   2.152660E-02   1.992149E-02   6.309589E-03   2.238837E-02   2.238837E-02   3.632842E-02   3.012097E-02   3.936306E-02   8.323716E-02   6.308407E-02   7.379427E-02   6.102086E-02   1.276152E-01   1.135127E-01   1.194338E-01   4.368033E-02   8.734592E-02   9.297711E-02   5.969768E-02   6.450035E-02   3.685147E-02   8.297262E-02   1.450655E-01   1.272818E-01   9.490358E-02   3.537121E-02   3.062048E-02   8.101880E-03   6.736515E-03   1.441303E-02   3.081621E-02   1.293119E-01   2.587590E-01   1.699396E-01   1.056704E-01   1.081983E-01   1.812022E-01   5.168846E-02   1.053883E-01   3.520041E-02   5.266446E-02   2.185886E-02   2.269223E-02   2.344220E-02
   3.446161E-02   4.074467E-02   5.772004E-02   1.240470E-01   5.253190E-01   8.253305E-01   3.537468E-01   1.429683E-01   6.464370E-02   4.849120E-02   5.740852E-02   5.113789E-02   1.501477E-01   2.451091E-01   4.503130E-01   1.302704E-01   7.690687E-02   6.520566E-02   7.486713E-02   7.620238E-02   4.471643E-02   2.693744E-02   3.614660E-02   4.291726E-02   1.626205E-02   1.009167E-02   1.481281E-02   6.959727E-02   1.161904E-01   1.527575E-01   1.377938E-01   4.988832E-02   2.076812E-02   3.028533E-02   1.347715E-01   3.469770E-02   1.286578E-01   9.821109E-02   6.538430E-02   1.637381E-01   1.448337E-01   5.471596E-02   5.674255E-02   4.512454E-02   8.341689E-02   3.897844E-02   5.739017E-02   7.899955E-02   4.806503E-02   6.805728E-02   5.853723E-02   7.448928E-02   4.703394E-02   2.270717E-02   2.345527E-02   3.038122E-02   3.090878E-02   2.551893E-02   5.262444E-02   6.071282E-02   1.054034E-01   4.777838E-02   5.646609E-02   3.976052E-02   7.177088E-02   6.739394E-02   1.634953E-01   2.951948E-01   8.871199E-02   3.145384E-02   2.316694E-02   3.702445E-02   3.015095E-02   6.782898E-02   5.464665E-02   3.363253E-02   2.967226E-02   3.872715E-02   6.462192E-02   8.201532E-02   1.056961E-01   7.694235E-02   2.849249E-02   8.905353E-02   1.434948E-01   2.301457E-02   2.648718E-02   2.636992E-02   1.955571E-02   2.170805E-02   2.170805E-02   7.051516E-02   3.651517E-02   3.651517E-02   2.918065E-02   3.740521E-02   3.740521E-02   5.371000E-02   5.371000E-02   5.371000E-02   5.847803E-02   5.847803E-02   5.847803E-02   8.738793E-02   8.738793E-02   8.738793E-02   8.738793E-02   8.738793E-02   7.779662E-02   7.779662E-02   7.779662E-02   7.779662E-02   7.779662E-02   9.278803E-02   9.278803E-02   9.278803E-02   9.278803E-02   9.278803E-02   9.278803E-02   9.278803E-02   3.766169E-02   3.766169E-02   3.766169E-02   3.766169E-02   3.766169E-02   3.766169E-02   3.766169E-02   3.766169E-02   3.766169E-02   3.766169E-02   6.276072E-02   6.276072E-02   6.276072E-02   6.276072E-02   6.276072E-02   6.276072E-02   6.276072E-02   6.276072E-02   6.276072E-02   6.502391E-02   6.502391E-02   6.502391E-02   6.502391E-02   6.502391E-02   6.502391E-02   6.502391E-02   2.496591E-02   2.496591E-02   2.496591E-02   2.496591E-02   2.496591E-02   3.559680E-02   3.559680E-02   3.559680E-02   3.559680E-02   2.052491E-02   2.052491E-02   2.052491E-02   3.557093E-02   3.557093E-02   3.341961E-02   3.341961E-02   1.777358E-02   1.777358E-02   1.798840E-02   1.757348E-02   4.899592E-02   4.899592E-02   4.377148E-02   4.428628E-02   4.040639E-02   5.169254E-02   5.525085E-02   2.665338E-02   2.754149E-02   8.578325E-02   7.178069E-02   3.317783E-02   5.979168E-02   5.466161E-02   2.942283E-02   2.341349E-02   3.204129E-02   6.453600E-02   4.889580E-02   1.741787E-01   1.977638E-01   4.541399E-02   4.564122E-02   1.961965E-02   1.635106E-02   1.231991E-02   1.418647E-02   1.744623E-02   3.383871E-02   1.618550E-01   7.900766E-02   8.876222E-02   7.514418E-02   1.218267E-01   4.451616E-02   3.773976E-02   1.475844E-02   2.012801E-02   2.684528E-02   2.539562E-02   4.212991E-02
   1.491340E-02   2.986686E-02   6.138477E-02   7.038206E-02   5.985367E-01   4.772476E-01   4.174045E-01   1.744102E-01   5.918312E-02   4.064289E-02   9.247600E-02   1.196478E-01   1.019226E-01   2.803856E-01   6.448306E-01   1.499467E-01   1.857578E-01   1.346846E-01   1.402662E-01   4.812704E-02   5.587645E-02   1.711821E-02   2.175059E-02   2.391931E-02   1.403638E-02   1.346825E-02   2.458759E-02   6.372023E-02   1.059180E-01   1.774171E-01   1.441270E-01   6.162218E-02   2.507621E-02   3.898411E-02   4.031795E-02   3.384442E-02   8.599538E-02   8.042271E-02   6.349710E-02   9.913839E-02   6.226137E-02   8.845431E-02   1.073207E-01   6.196965E-02   8.127136E-02   4.292905E-02   6.172097E-02   1.513200E-01   4.338419E-02   4.489323E-02   7.144491E-02   6.281248E-02   1.004287E-01   4.924069E-02   1.406314E-02   2.032596E-02   4.886372E-02   3.608608E-02   1.114671E-01   8.344933E-02   9.711799E-02   7.688262E-02   4.899663E-02   2.772192E-02   3.625223E-02   7.798032E-02   2.048940E-01   1.825503E-01   4.989165E-02   2.801804E-02   2.943817E-02   5.079293E-02   4.519857E-02   5.891142E-02   9.468067E-02   4.522304E-02   4.704628E-02   1.503269E-02   3.790402E-02   3.344337E-02   4.361457E-02   4.133075E-02   6.589304E-02   7.237820E-02   1.814409E-01   3.257671E-02   5.368060E-02   3.823606E-02   2.396357E-02   4.893178E-02   4.893178E-02   5.736804E-02   1.584259E-02   1.584259E-02   6.151161E-02   7.984275E-02   7.984275E-02   4.677885E-02   4.677885E-02   4.677885E-02   6.080286E-02   6.080286E-02   6.080286E-02   1.002668E-01   1.002668E-01   1.002668E-01   1.002668E-01   1.002668E-01   4.094138E-02   4.094138E-02   4.094138E-02   4.094138E-02   4.094138E-02   3.937430E-02   3.937430E-02   3.937430E-02   3.937430E-02   3.937430E-02   3.937430E-02   3.937430E-02   3.726352E-02   3.726352E-02   3.726352E-02   3.726352E-02   3.726352E-02   3.726352E-02   3.726352E-02   3.726352E-02   3.726352E-02   3.726352E-02   7.996664E-02   7.996664E-02   7.996664E-02   7.996664E-02   7.996664E-02   7.996664E-02   7.996664E-02   7.996664E-02   7.996664E-02   2.856315E-02   2.856315E-02   2.856315E-02   2.856315E-02   2.856315E-02   2.856315E-02   2.856315E-02   2.019586E-02   2.019586E-02   2.019586E-02   2.019586E-02   2.019586E-02   1.719125E-02   1.719125E-02   1.719125E-02   1.719125E-02   3.442631E-02   3.442631E-02   3.442631E-02   4.169418E-02   4.169418E-02   3.027920E-02   3.027920E-02   6.337624E-02   6.337624E-02   2.528593E-02   3.723985E-02   7.467753E-02   7.467753E-02   3.711294E-02   6.620017E-02   1.431711E-01   5.214104E-02   7.830808E-02   1.320477E-02   2.377871E-02   4.933675E-02   4.461236E-02   5.289032E-02   2.950649E-02   6.489182E-02   1.520927E-02   1.772502E-02   1.867373E-02   4.825380E-02   3.965428E-02   1.633983E-01   2.617002E-01   1.015914E-01   3.485150E-02   1.799323E-02   3.293680E-02   3.410069E-02   3.446568E-02   1.707907E-02   1.247768E-02   4.143316E-02   3.523346E-02   4.474654E-02   2.901975E-02   4.021162E-02   3.083909E-02   3.334348E-02   1.455281E-02   4.026299E-02   6.550919E-02   7.990584E-02   1.346088E-01