# LPF package for  MODFLOW-2005, generated by Flopy.
        53    -1E+30         0  
         1
         0
   0.000000E+00
         0
         0
INTERNAL               1 (207E15.6) -1 #hk layer 1                    
   5.186430E+01   2.262737E+01   3.197310E+01   2.070892E+01   2.069134E+01   3.865712E+01   7.163658E+01   2.757909E+01   1.967297E+01   3.590308E+01   4.138549E+01   1.473223E+01   2.969006E+01   5.017297E+01   1.103027E+02   1.291113E+02   2.349185E+01   2.174967E+01   5.628170E+01   8.338329E+01   7.291847E+01   7.702843E+01   3.536310E+01   2.294419E+01   1.805555E+01   1.531326E+01   9.159060E+01   1.219518E+02   1.004323E+02   2.154701E+02   5.071355E+01   3.619947E+01   3.425029E+01   3.730368E+01   3.476526E+01   2.803535E+01   2.905678E+01   3.388094E+01   3.343763E+01   8.279272E+00   1.003754E+01   9.885701E+00   5.867035E+00   2.145522E+01   3.974373E+01   2.722364E+01   2.526989E+01   1.179221E+01   1.004728E+01   1.025431E+01   1.134890E+01   1.221111E+01   2.509160E+01   1.847697E+01   4.892516E+01   3.807547E+01   1.873477E+01   2.081692E+01   9.385094E+00   2.104215E+01   6.428627E+00   1.196290E+01   2.888309E+01   1.888882E+01   2.433238E+01   1.468271E+01   2.566162E+01   1.483463E+01   1.676671E+01   1.663687E+01   6.891203E+00   1.361813E+01   2.236745E+01   3.767789E+01   4.784438E+01   2.729053E+01   6.437258E+01   4.528184E+01   2.345833E+01   4.159303E+01   5.541467E+01   9.860443E+01   1.044687E+02   8.322391E+01   5.084276E+01   4.278534E+01   3.746955E+01   1.924433E+01   1.989725E+01   2.330299E+01   2.330299E+01   2.215976E+01   3.463961E+01   3.463961E+01   6.501421E+01   3.191535E+01   3.191535E+01   2.273614E+01   2.273614E+01   2.273614E+01   4.934697E+01   4.934697E+01   4.934697E+01   6.299418E+01   6.299418E+01   6.299418E+01   6.299418E+01   6.299418E+01   8.845711E+01   8.845711E+01   8.845711E+01   8.845711E+01   8.845711E+01   7.820730E+01   7.820730E+01   7.820730E+01   7.820730E+01   7.820730E+01   7.820730E+01   7.820730E+01   7.782903E+01   7.782903E+01   7.782903E+01   7.782903E+01   7.782903E+01   7.782903E+01   7.782903E+01   7.782903E+01   7.782903E+01   7.782903E+01   1.198742E+02   1.198742E+02   1.198742E+02   1.198742E+02   1.198742E+02   1.198742E+02   1.198742E+02   1.198742E+02   1.198742E+02   1.424922E+02   1.424922E+02   1.424922E+02   1.424922E+02   1.424922E+02   1.424922E+02   1.424922E+02   1.021225E+02   1.021225E+02   1.021225E+02   1.021225E+02   1.021225E+02   6.012547E+01   6.012547E+01   6.012547E+01   6.012547E+01   9.895616E+01   9.895616E+01   9.895616E+01   1.671317E+01   1.671317E+01   1.329654E+01   1.329654E+01   1.226242E+01   1.226242E+01   1.596137E+01   2.622533E+01   3.517578E+01   3.517578E+01   8.165788E+01   6.752310E+01   1.308152E+02   1.137246E+02   1.466172E+01   1.013346E+01   3.770140E+00   3.396704E+00   1.816293E+01   2.880326E+01   2.783825E+01   2.524392E+01   7.584119E+01   4.064771E+01   5.112358E+01   1.128971E+02   3.734784E+01   3.902683E+01   2.533312E+01   1.778439E+01   1.210265E+01   1.210751E+01   1.780718E+01   2.191461E+01   3.199907E+01   1.895791E+01   4.009383E+01   1.895894E+01   1.211024E+01   4.570623E+01   9.290198E+01   4.841345E+01   7.328763E+01   8.991993E+01   1.238274E+02   4.041138E+01   2.958472E+01   3.736676E+01   3.133928E+01
   4.148260E+01   2.016409E+01   1.037013E+01   9.467111E+00   2.045224E+01   2.914107E+01   4.180136E+01   4.322591E+01   2.024287E+01   8.242668E+01   1.484439E+01   1.641744E+01   1.910893E+01   3.544518E+01   4.495486E+01   5.197125E+01   1.633102E+01   2.849368E+01   1.132093E+02   9.189320E+01   9.171670E+01   1.576786E+02   3.751509E+01   6.715712E+01   1.944848E+01   1.439569E+01   1.080482E+02   9.954019E+01   1.794274E+02   2.197377E+02   2.087399E+02   5.493317E+01   3.970753E+01   5.113486E+01   8.646458E+01   2.819063E+01   4.654465E+01   2.507467E+01   2.697726E+01   1.896988E+01   9.423539E+00   1.457633E+01   3.030801E+01   2.060955E+01   6.199439E+01   6.659199E+01   5.584978E+01   2.414801E+01   1.028971E+01   8.743135E+00   1.130772E+01   8.230609E+00   1.296250E+01   2.427355E+01   3.171955E+01   1.199101E+01   1.727919E+01   9.942142E+00   1.879772E+01   1.358404E+01   5.234391E+00   1.618731E+01   2.239252E+01   1.580848E+01   1.400513E+01   3.467627E+01   4.773526E+01   2.342277E+01   8.067310E+00   2.159444E+01   4.180520E+00   8.117771E+00   2.071391E+01   4.642019E+01   2.641349E+01   5.287673E+01   4.860929E+01   5.986249E+01   2.338485E+01   3.221591E+01   6.379697E+01   5.251957E+01   5.317448E+01   4.875720E+01   2.717553E+01   3.339710E+01   5.242306E+01   1.800644E+01   2.376237E+01   1.933564E+01   1.933564E+01   1.041744E+01   2.540945E+01   2.540945E+01   4.592389E+01   3.116524E+01   3.116524E+01   1.760959E+01   1.760959E+01   1.760959E+01   4.688437E+01   4.688437E+01   4.688437E+01   5.699466E+01   5.699466E+01   5.699466E+01   5.699466E+01   5.699466E+01   8.232249E+01   8.232249E+01   8.232249E+01   8.232249E+01   8.232249E+01   5.841938E+01   5.841938E+01   5.841938E+01   5.841938E+01   5.841938E+01   5.841938E+01   5.841938E+01   6.004797E+01   6.004797E+01   6.004797E+01   6.004797E+01   6.004797E+01   6.004797E+01   6.004797E+01   6.004797E+01   6.004797E+01   6.004797E+01   9.312452E+01   9.312452E+01   9.312452E+01   9.312452E+01   9.312452E+01   9.312452E+01   9.312452E+01   9.312452E+01   9.312452E+01   1.172857E+02   1.172857E+02   1.172857E+02   1.172857E+02   1.172857E+02   1.172857E+02   1.172857E+02   6.217367E+01   6.217367E+01   6.217367E+01   6.217367E+01   6.217367E+01   7.276435E+01   7.276435E+01   7.276435E+01   7.276435E+01   1.724351E+01   1.724351E+01   1.724351E+01   2.321132E+01   2.321132E+01   1.618641E+01   1.618641E+01   7.235860E+00   7.235860E+00   6.628155E+00   7.991212E+00   1.587892E+01   1.587892E+01   4.616822E+01   3.588398E+01   9.435413E+01   6.876196E+01   2.102947E+01   1.435699E+01   8.520485E+00   5.457837E+00   2.286175E+01   3.273509E+01   7.535865E+01   3.021845E+01   1.052073E+02   5.977995E+01   6.847504E+01   1.146786E+02   1.365676E+02   6.355560E+01   3.675756E+01   1.760184E+01   2.018967E+01   1.506500E+01   6.883498E+01   4.688586E+01   2.248470E+01   3.087719E+01   3.959608E+01   5.867215E+01   1.692267E+01   1.135579E+02   1.587942E+02   6.045306E+01   2.624032E+01   3.007186E+01   5.778210E+01   2.261141E+01   2.418437E+01   1.652913E+01   2.036090E+01
   8.080646E+01   1.398325E+01   1.096114E+01   5.857666E+00   2.030343E+01   1.859817E+01   5.696212E+01   3.584935E+01   2.527070E+01   6.550607E+01   2.254191E+01   2.890623E+01   1.851036E+01   3.477859E+01   4.212336E+01   3.769219E+01   2.028777E+01   3.737747E+01   5.360941E+01   7.751523E+01   1.051888E+02   2.249548E+02   6.835031E+01   5.879383E+01   3.766856E+01   1.274378E+01   5.783209E+01   6.179632E+01   6.175264E+02   3.120211E+02   4.792872E+02   1.031212E+02   3.705299E+01   3.516283E+01   3.731920E+01   4.108702E+01   3.346630E+01   2.479329E+01   3.310022E+01   3.092046E+01   1.247781E+01   1.464959E+01   5.534100E+01   6.592113E+01   6.094269E+01   3.566187E+01   6.366796E+01   2.893731E+01   2.002639E+01   8.321650E+00   1.023592E+01   9.158956E+00   1.061063E+01   1.797486E+01   3.772575E+01   6.247601E+00   3.385350E+01   1.312262E+01   1.690325E+01   2.412360E+01   1.698647E+01   1.117435E+01   8.791350E+00   1.473476E+01   1.240174E+01   3.327239E+01   2.951316E+01   4.704888E+01   1.417632E+01   1.697513E+01   9.652239E+00   8.591175E+00   3.241463E+01   3.228820E+01   4.378302E+01   6.024844E+01   6.366073E+01   7.851733E+01   4.138506E+01   3.913818E+01   1.625447E+02   5.524589E+01   1.232945E+01   2.451460E+01   2.850677E+01   4.587391E+01   5.744276E+01   1.486019E+01   1.936231E+01   2.225670E+01   2.225670E+01   1.131654E+01   1.420026E+01   1.420026E+01   3.714359E+01   2.939861E+01   2.939861E+01   6.819587E+01   6.819587E+01   6.819587E+01   1.724568E+01   1.724568E+01   1.724568E+01   5.100134E+01   5.100134E+01   5.100134E+01   5.100134E+01   5.100134E+01   5.154165E+01   5.154165E+01   5.154165E+01   5.154165E+01   5.154165E+01   5.300513E+01   5.300513E+01   5.300513E+01   5.300513E+01   5.300513E+01   5.300513E+01   5.300513E+01   1.143573E+02   1.143573E+02   1.143573E+02   1.143573E+02   1.143573E+02   1.143573E+02   1.143573E+02   1.143573E+02   1.143573E+02   1.143573E+02   9.207143E+01   9.207143E+01   9.207143E+01   9.207143E+01   9.207143E+01   9.207143E+01   9.207143E+01   9.207143E+01   9.207143E+01   1.123002E+02   1.123002E+02   1.123002E+02   1.123002E+02   1.123002E+02   1.123002E+02   1.123002E+02   2.227538E+01   2.227538E+01   2.227538E+01   2.227538E+01   2.227538E+01   2.677498E+01   2.677498E+01   2.677498E+01   2.677498E+01   2.106562E+01   2.106562E+01   2.106562E+01   1.152406E+01   1.152406E+01   9.569527E+00   9.569527E+00   4.137755E+00   4.137755E+00   3.073357E+00   3.378005E+00   6.591996E+00   6.591996E+00   2.284776E+01   1.530673E+01   1.504991E+02   1.786064E+02   6.433350E+01   2.207282E+01   2.713793E+00   1.238325E+01   1.845509E+01   2.317086E+01   6.565884E+01   3.026422E+01   1.229894E+02   1.458109E+02   5.613667E+01   8.998577E+01   1.279736E+02   7.037028E+01   4.824653E+01   6.124042E+01   2.309265E+01   1.713531E+01   5.123170E+01   3.065909E+01   2.801625E+01   6.518710E+01   8.608969E+01   1.053038E+02   3.654290E+01   1.342309E+02   7.867300E+01   4.196124E+01   1.357731E+01   2.475462E+01   6.995863E+01   1.111654E+01   1.162857E+01   9.179300E+00   1.682290E+01
   3.128763E+01   1.306773E+01   1.690779E+01   7.806305E+00   1.534529E+01   1.872598E+01   8.134720E+01   4.032693E+01   2.428189E+01   6.972265E+01   2.353493E+01   1.444413E+01   3.043612E+01   2.198223E+01   1.768956E+01   4.273711E+01   2.987799E+01   5.168694E+01   6.917076E+01   8.430818E+01   6.686097E+01   9.335996E+01   9.884326E+01   7.517712E+01   5.285422E+01   3.310304E+01   5.303237E+01   6.324030E+01   7.164047E+02   5.449399E+02   3.881765E+02   1.174907E+02   2.506050E+01   2.507663E+01   2.704350E+01   3.045570E+01   4.062286E+01   2.633373E+01   5.074874E+01   2.690515E+01   1.454203E+01   1.523880E+01   4.993186E+01   1.124864E+02   9.699036E+01   3.980758E+01   7.397066E+01   5.311853E+01   1.376348E+01   4.780024E+00   1.245289E+01   1.079736E+01   3.068442E+01   1.097453E+01   2.149661E+01   1.639179E+01   1.176578E+02   1.310736E+01   2.140411E+01   2.186560E+01   8.091076E+00   7.588022E+00   6.073736E+00   8.338143E+00   7.616852E+00   3.092517E+01   2.932848E+01   1.252562E+02   1.987460E+01   1.413609E+01   1.400263E+01   9.214576E+00   2.787666E+01   1.047486E+02   8.034676E+01   1.040677E+02   5.569304E+01   3.722142E+01   3.218583E+01   7.642781E+01   6.646090E+01   6.497173E+01   1.307946E+01   1.860123E+01   3.196379E+01   3.568117E+01   6.788513E+01   2.246832E+01   4.042176E+01   2.175631E+01   2.175631E+01   2.098637E+01   1.472158E+01   1.472158E+01   3.323694E+01   4.193576E+01   4.193576E+01   9.671568E+01   9.671568E+01   9.671568E+01   4.912031E+01   4.912031E+01   4.912031E+01   4.593790E+01   4.593790E+01   4.593790E+01   4.593790E+01   4.593790E+01   6.669037E+01   6.669037E+01   6.669037E+01   6.669037E+01   6.669037E+01   4.999689E+01   4.999689E+01   4.999689E+01   4.999689E+01   4.999689E+01   4.999689E+01   4.999689E+01   6.999059E+01   6.999059E+01   6.999059E+01   6.999059E+01   6.999059E+01   6.999059E+01   6.999059E+01   6.999059E+01   6.999059E+01   6.999059E+01   1.811529E+02   1.811529E+02   1.811529E+02   1.811529E+02   1.811529E+02   1.811529E+02   1.811529E+02   1.811529E+02   1.811529E+02   1.243595E+02   1.243595E+02   1.243595E+02   1.243595E+02   1.243595E+02   1.243595E+02   1.243595E+02   2.541335E+01   2.541335E+01   2.541335E+01   2.541335E+01   2.541335E+01   1.595813E+01   1.595813E+01   1.595813E+01   1.595813E+01   2.627703E+01   2.627703E+01   2.627703E+01   5.673009E+00   5.673009E+00   9.354127E+00   9.354127E+00   2.853546E+00   2.853546E+00   3.391061E+00   7.066091E+00   6.662040E+00   6.662040E+00   1.231578E+01   2.348198E+01   1.108415E+02   1.302334E+02   4.682936E+01   1.607016E+01   3.757255E+00   1.291459E+01   3.503119E+01   2.513799E+01   4.974547E+01   3.864854E+01   9.066891E+01   1.176187E+02   7.217774E+01   7.093488E+01   1.675727E+02   8.924415E+01   5.456784E+01   2.058158E+01   1.623106E+01   4.331677E+01   3.012429E+01   2.355145E+01   4.245591E+01   6.515752E+01   1.042950E+02   1.085059E+02   4.234425E+01   1.431145E+02   4.465552E+01   7.209703E+01   1.733803E+01   2.193398E+01   3.871070E+01   9.726706E+00   9.742675E+00   8.374502E+00   9.724060E+00
   2.462231E+01   1.051608E+01   1.607014E+01   1.142815E+01   1.772863E+01   1.495403E+01   4.543686E+01   5.069972E+01   3.499064E+01   6.351158E+01   2.922204E+01   1.215953E+01   1.884201E+01   2.366188E+01   2.953109E+01   2.482335E+01   2.206067E+01   1.044729E+02   4.348767E+01   5.761656E+01   2.656427E+01   1.347871E+02   9.034222E+01   1.857490E+02   4.918442E+01   3.763698E+01   1.970573E+01   8.447675E+01   8.166202E+02   5.884678E+02   4.018211E+02   7.321179E+01   8.338589E+01   2.340245E+01   4.189580E+01   4.523455E+01   4.041348E+01   3.116973E+01   2.420363E+01   3.355998E+01   1.391067E+01   1.652352E+01   4.829804E+01   1.321294E+02   1.251909E+02   8.232307E+01   5.041527E+01   3.140029E+01   2.216503E+01   6.577882E+00   1.253135E+01   9.810280E+00   1.922795E+01   1.316835E+01   3.513346E+01   5.083218E+01   1.245045E+02   2.898594E+01   1.780613E+01   1.872969E+01   9.265465E+00   6.917741E+00   8.982222E+00   1.168724E+01   8.647833E+00   2.954351E+01   7.590163E+01   1.088221E+02   3.905557E+01   3.474088E+01   2.851097E+01   3.584978E+01   3.568346E+01   1.844373E+02   1.478188E+02   7.123679E+01   6.066467E+01   4.646260E+01   4.863285E+01   4.034761E+01   3.877117E+01   3.309953E+01   2.323848E+01   3.847849E+01   3.735595E+01   1.768892E+01   5.134816E+01   3.536826E+01   2.261435E+01   2.726262E+01   2.726262E+01   4.631546E+01   3.230937E+01   3.230937E+01   3.015551E+01   7.840324E+01   7.840324E+01   1.028458E+02   1.028458E+02   1.028458E+02   2.693483E+01   2.693483E+01   2.693483E+01   2.887407E+01   2.887407E+01   2.887407E+01   2.887407E+01   2.887407E+01   7.079372E+01   7.079372E+01   7.079372E+01   7.079372E+01   7.079372E+01   2.395071E+01   2.395071E+01   2.395071E+01   2.395071E+01   2.395071E+01   2.395071E+01   2.395071E+01   4.141569E+01   4.141569E+01   4.141569E+01   4.141569E+01   4.141569E+01   4.141569E+01   4.141569E+01   4.141569E+01   4.141569E+01   4.141569E+01   1.346322E+02   1.346322E+02   1.346322E+02   1.346322E+02   1.346322E+02   1.346322E+02   1.346322E+02   1.346322E+02   1.346322E+02   1.483074E+02   1.483074E+02   1.483074E+02   1.483074E+02   1.483074E+02   1.483074E+02   1.483074E+02   9.812450E+01   9.812450E+01   9.812450E+01   9.812450E+01   9.812450E+01   2.769742E+01   2.769742E+01   2.769742E+01   2.769742E+01   5.189973E+01   5.189973E+01   5.189973E+01   1.331715E+01   1.331715E+01   6.632801E+00   6.632801E+00   4.084842E+00   4.084842E+00   3.902829E+00   6.245848E+00   4.430359E+00   4.430359E+00   6.346416E+00   1.639556E+01   9.955955E+01   1.039819E+02   5.483781E+01   1.603625E+01   5.674791E+00   8.079763E+00   1.135918E+01   3.787458E+01   3.747425E+01   2.477325E+01   6.308073E+01   4.995294E+01   4.041866E+01   7.573991E+01   9.439950E+01   7.186546E+01   4.590627E+01   2.095043E+01   1.559084E+01   1.558228E+01   2.132574E+01   1.405535E+01   1.886451E+01   4.913420E+01   1.815092E+02   1.313647E+02   5.947766E+01   5.376234E+01   6.428510E+01   6.221056E+01   2.812672E+01   1.546730E+01   3.721363E+01   1.548798E+01   9.427367E+00   5.366031E+00   1.127977E+01
   3.367533E+01   1.664038E+01   4.674905E+01   9.930532E+00   3.077048E+01   1.984812E+01   3.247081E+01   4.414313E+01   7.685828E+01   8.061301E+01   5.596257E+01   2.389147E+01   1.460967E+01   1.208136E+01   2.527101E+01   1.590506E+01   1.873614E+01   3.202958E+01   3.265984E+01   2.001390E+01   1.727557E+01   5.970328E+01   8.555305E+01   2.195380E+02   8.923268E+01   6.282880E+01   2.069690E+01   8.476461E+01   5.223633E+02   6.217863E+02   2.302950E+02   9.462192E+01   9.874817E+01   7.102492E+01   6.140182E+01   4.577070E+01   4.073425E+01   5.679620E+01   1.851067E+01   2.083831E+01   3.122702E+01   1.870761E+01   3.980928E+01   1.059910E+02   8.503913E+01   9.948988E+01   5.919036E+01   3.813581E+01   7.458646E+01   1.922854E+01   1.265701E+01   2.036434E+01   1.598223E+01   2.553860E+01   3.719557E+01   6.670425E+01   2.275514E+02   4.659607E+01   2.023695E+01   1.370173E+01   1.027001E+01   8.700610E+00   6.599792E+00   1.132478E+01   6.433125E+00   2.728102E+01   7.944994E+01   7.063186E+01   6.130559E+01   5.124880E+01   2.653665E+01   4.601712E+01   5.077978E+01   2.381675E+02   2.810257E+02   9.576772E+01   5.044143E+01   4.837797E+01   4.139782E+01   6.615621E+01   4.219945E+01   2.306241E+01   6.796015E+01   7.025058E+01   3.541339E+01   3.164570E+01   9.706345E+01   4.249653E+01   1.478508E+01   2.336060E+01   2.336060E+01   3.241808E+01   3.051421E+01   3.051421E+01   1.923327E+01   8.061321E+01   8.061321E+01   5.985794E+01   5.985794E+01   5.985794E+01   2.210430E+01   2.210430E+01   2.210430E+01   2.226173E+01   2.226173E+01   2.226173E+01   2.226173E+01   2.226173E+01   5.338274E+01   5.338274E+01   5.338274E+01   5.338274E+01   5.338274E+01   2.071523E+01   2.071523E+01   2.071523E+01   2.071523E+01   2.071523E+01   2.071523E+01   2.071523E+01   2.867479E+01   2.867479E+01   2.867479E+01   2.867479E+01   2.867479E+01   2.867479E+01   2.867479E+01   2.867479E+01   2.867479E+01   2.867479E+01   7.087421E+01   7.087421E+01   7.087421E+01   7.087421E+01   7.087421E+01   7.087421E+01   7.087421E+01   7.087421E+01   7.087421E+01   6.446633E+01   6.446633E+01   6.446633E+01   6.446633E+01   6.446633E+01   6.446633E+01   6.446633E+01   6.393317E+01   6.393317E+01   6.393317E+01   6.393317E+01   6.393317E+01   5.652203E+01   5.652203E+01   5.652203E+01   5.652203E+01   7.345770E+01   7.345770E+01   7.345770E+01   1.790149E+01   1.790149E+01   8.271091E+00   8.271091E+00   1.258968E+01   1.258968E+01   5.097357E+00   3.879265E+00   3.385996E+00   3.385996E+00   8.908121E+00   2.920423E+01   1.362727E+02   4.034311E+01   6.473875E+01   3.426544E+01   1.311430E+01   1.125334E+01   9.757811E+00   3.823474E+01   4.331487E+01   5.468006E+01   7.174402E+01   5.641944E+01   4.573444E+01   5.383512E+01   6.709035E+01   3.434528E+01   4.130378E+01   1.644585E+01   1.289308E+01   7.556677E+00   1.166308E+01   1.029968E+01   2.232307E+01   1.030403E+02   2.666257E+02   1.564032E+02   9.369852E+01   2.294448E+01   4.495003E+01   4.217120E+01   4.272802E+01   5.671129E+01   8.168055E+01   1.155489E+01   6.848788E+00   6.132251E+00   8.081343E+00
   2.345757E+01   3.885329E+01   4.896905E+01   4.195299E+01   4.214960E+01   1.701169E+01   3.394333E+01   4.368756E+01   5.169290E+01   9.768274E+01   4.331941E+01   3.197314E+01   1.522636E+01   1.646067E+01   1.152606E+01   7.466083E+00   1.428506E+01   2.137394E+01   2.456422E+01   2.477892E+01   2.029834E+01   3.888820E+01   6.482155E+01   1.865845E+02   5.155265E+01   1.088684E+02   6.641706E+01   7.519202E+01   4.096045E+02   2.000271E+02   1.223144E+02   2.703673E+02   9.723996E+01   7.022615E+01   7.771741E+01   7.868716E+01   3.866152E+01   4.381730E+01   7.521267E+01   3.637903E+01   5.167923E+01   3.590246E+01   3.730722E+01   1.328268E+02   5.602324E+01   5.872790E+01   5.754184E+01   2.304771E+01   4.361388E+01   1.834968E+01   1.215461E+01   1.089701E+01   1.247101E+01   3.532658E+01   4.399628E+01   8.017162E+01   7.113087E+01   4.486242E+01   1.818150E+01   1.766453E+01   9.965783E+00   8.913029E+00   7.837869E+00   1.440781E+01   1.164174E+01   7.274348E+01   8.582719E+01   8.620415E+01   1.882197E+02   3.900968E+01   7.638894E+01   7.257015E+01   7.739101E+01   1.808761E+02   1.807830E+02   1.226237E+02   6.868549E+01   6.189657E+01   5.799708E+01   6.036662E+01   4.317668E+01   2.546239E+01   1.769346E+02   1.523328E+02   7.158108E+01   5.743289E+01   3.084160E+01   4.266930E+01   3.653411E+01   2.085253E+01   2.085253E+01   9.922181E+01   4.272813E+01   4.272813E+01   3.739605E+01   6.068487E+01   6.068487E+01   6.516936E+01   6.516936E+01   6.516936E+01   3.651081E+01   3.651081E+01   3.651081E+01   3.378305E+01   3.378305E+01   3.378305E+01   3.378305E+01   3.378305E+01   5.052637E+01   5.052637E+01   5.052637E+01   5.052637E+01   5.052637E+01   2.323600E+01   2.323600E+01   2.323600E+01   2.323600E+01   2.323600E+01   2.323600E+01   2.323600E+01   7.068984E+01   7.068984E+01   7.068984E+01   7.068984E+01   7.068984E+01   7.068984E+01   7.068984E+01   7.068984E+01   7.068984E+01   7.068984E+01   6.978470E+01   6.978470E+01   6.978470E+01   6.978470E+01   6.978470E+01   6.978470E+01   6.978470E+01   6.978470E+01   6.978470E+01   4.196258E+01   4.196258E+01   4.196258E+01   4.196258E+01   4.196258E+01   4.196258E+01   4.196258E+01   4.796788E+01   4.796788E+01   4.796788E+01   4.796788E+01   4.796788E+01   4.839909E+01   4.839909E+01   4.839909E+01   4.839909E+01   3.919851E+01   3.919851E+01   3.919851E+01   3.348241E+01   3.348241E+01   1.329385E+01   1.329385E+01   3.357478E+01   3.357478E+01   8.860520E+00   5.338481E+00   4.846052E+00   4.846052E+00   1.383616E+01   3.338633E+01   4.199733E+01   4.139447E+01   5.808627E+01   2.279419E+01   1.024491E+01   1.057723E+01   1.527181E+01   3.717347E+01   3.562455E+01   6.607362E+01   5.077798E+01   5.041433E+01   3.302427E+01   2.153768E+01   3.327453E+01   2.857821E+01   1.968388E+01   2.882170E+01   1.234005E+01   1.032082E+01   1.909952E+01   9.156015E+00   4.854951E+01   9.094740E+01   2.530985E+02   1.239545E+02   9.788110E+01   4.319582E+01   3.432485E+01   7.657897E+01   1.125948E+02   6.479745E+01   3.334920E+01   1.376213E+01   5.954962E+00   3.783768E+00   1.315513E+01
   2.762166E+01   1.764543E+01   1.369798E+01   3.761751E+01   4.260450E+01   2.817742E+01   5.357480E+01   3.692205E+01   5.435867E+01   5.589491E+01   2.200744E+01   2.243387E+01   1.208136E+01   8.979147E+00   7.197305E+00   7.914159E+00   7.591415E+00   2.756433E+01   2.859282E+01   2.030949E+01   2.405598E+01   2.369913E+01   3.853644E+01   1.757797E+02   9.438389E+01   8.878054E+01   5.883140E+01   5.949858E+01   1.504977E+02   1.041281E+02   6.600139E+01   1.611255E+02   1.620340E+02   8.821889E+01   1.888889E+02   8.428930E+01   6.366085E+01   3.934219E+01   9.020758E+01   4.093966E+01   1.104212E+02   4.162348E+01   1.949133E+01   3.457056E+01   5.186369E+01   8.408772E+01   5.775101E+01   4.947565E+01   3.136199E+01   1.226795E+01   1.502381E+01   1.262546E+01   1.582557E+01   3.558483E+01   2.707363E+01   4.175439E+01   1.202810E+01   2.011555E+01   2.390492E+01   2.460630E+01   1.628848E+01   1.361829E+01   1.534097E+01   2.032354E+01   4.285260E+01   1.331244E+02   1.263596E+02   6.308766E+01   4.192006E+01   2.658117E+01   4.929810E+01   1.283412E+02   1.387196E+02   1.212181E+02   9.074765E+01   5.086801E+01   2.898102E+01   3.136707E+01   3.518980E+01   2.589362E+01   6.789562E+01   5.798810E+01   1.260679E+02   6.148600E+01   1.107899E+02   5.745248E+01   4.369784E+01   9.508631E+00   5.459861E+01   2.388378E+01   2.388378E+01   5.532079E+01   2.706675E+01   2.706675E+01   2.753612E+01   5.960695E+01   5.960695E+01   2.384213E+01   2.384213E+01   2.384213E+01   5.834035E+01   5.834035E+01   5.834035E+01   2.293069E+01   2.293069E+01   2.293069E+01   2.293069E+01   2.293069E+01   3.046200E+01   3.046200E+01   3.046200E+01   3.046200E+01   3.046200E+01   4.227911E+01   4.227911E+01   4.227911E+01   4.227911E+01   4.227911E+01   4.227911E+01   4.227911E+01   3.086801E+01   3.086801E+01   3.086801E+01   3.086801E+01   3.086801E+01   3.086801E+01   3.086801E+01   3.086801E+01   3.086801E+01   3.086801E+01   3.640205E+01   3.640205E+01   3.640205E+01   3.640205E+01   3.640205E+01   3.640205E+01   3.640205E+01   3.640205E+01   3.640205E+01   5.073003E+01   5.073003E+01   5.073003E+01   5.073003E+01   5.073003E+01   5.073003E+01   5.073003E+01   5.955988E+01   5.955988E+01   5.955988E+01   5.955988E+01   5.955988E+01   6.298638E+01   6.298638E+01   6.298638E+01   6.298638E+01   7.804350E+01   7.804350E+01   7.804350E+01   7.036321E+01   7.036321E+01   3.713145E+01   3.713145E+01   3.657523E+01   3.657523E+01   2.061079E+01   5.503523E+00   6.450792E+00   6.450792E+00   8.155503E+00   3.595166E+01   1.553712E+01   2.183974E+01   4.871613E+01   1.788325E+01   1.824182E+01   1.502470E+01   2.746690E+01   3.823241E+01   1.025210E+02   1.614714E+02   1.470150E+02   2.942093E+01   3.982687E+01   1.239564E+01   1.765071E+01   2.245168E+01   2.391101E+01   3.254171E+01   1.395185E+01   9.319394E+00   7.666962E+00   1.137060E+01   5.494527E+01   6.085341E+01   1.502976E+02   9.322176E+01   8.519410E+01   8.152191E+01   6.388504E+01   6.142160E+01   1.259636E+02   1.434120E+02   3.266313E+01   1.249815E+01   8.645504E+00   5.511264E+00   1.644523E+01
   1.867201E+01   4.747483E+01   2.384056E+01   3.015520E+01   3.600697E+01   3.499791E+01   8.923498E+01   5.957374E+01   5.488848E+01   3.098048E+01   2.537202E+01   2.713610E+01   1.391424E+01   9.270435E+00   1.504547E+01   2.406842E+01   8.750717E+00   8.919392E+00   1.896856E+01   1.490434E+01   4.950691E+00   1.081821E+01   7.620210E+01   1.853311E+02   2.192525E+02   7.766586E+01   4.669572E+01   6.632439E+01   6.346357E+01   1.144235E+02   5.319175E+01   7.923565E+01   1.889738E+02   1.023405E+02   3.784094E+02   1.275924E+02   1.046731E+02   3.234441E+01   8.419849E+01   4.185108E+01   6.396677E+01   2.085737E+01   3.320897E+01   2.858758E+01   5.160239E+01   9.750153E+01   8.483252E+01   5.722440E+01   4.817754E+01   1.346092E+01   1.667270E+01   1.149666E+01   2.171440E+01   4.898224E+01   1.915186E+01   1.930087E+01   5.918848E+00   1.613500E+01   3.931396E+01   3.735846E+01   2.028509E+01   1.547072E+01   2.046244E+01   2.185810E+01   7.334511E+01   3.668105E+02   1.006538E+02   8.244580E+01   7.033539E+01   3.734513E+01   9.874567E+01   1.668116E+02   8.671429E+01   8.213908E+01   1.056179E+02   1.184724E+02   2.238230E+01   3.014826E+01   2.335333E+01   3.364524E+01   6.047936E+01   6.660571E+01   6.870255E+01   2.969200E+01   4.291974E+01   8.067777E+01   5.623853E+01   8.527344E+00   5.021849E+01   1.995977E+01   1.995977E+01   2.837769E+01   3.746901E+01   3.746901E+01   1.668872E+01   5.209074E+01   5.209074E+01   2.553937E+01   2.553937E+01   2.553937E+01   4.654089E+01   4.654089E+01   4.654089E+01   3.605816E+01   3.605816E+01   3.605816E+01   3.605816E+01   3.605816E+01   3.655570E+01   3.655570E+01   3.655570E+01   3.655570E+01   3.655570E+01   5.284264E+01   5.284264E+01   5.284264E+01   5.284264E+01   5.284264E+01   5.284264E+01   5.284264E+01   2.402405E+01   2.402405E+01   2.402405E+01   2.402405E+01   2.402405E+01   2.402405E+01   2.402405E+01   2.402405E+01   2.402405E+01   2.402405E+01   3.052219E+01   3.052219E+01   3.052219E+01   3.052219E+01   3.052219E+01   3.052219E+01   3.052219E+01   3.052219E+01   3.052219E+01   5.850204E+01   5.850204E+01   5.850204E+01   5.850204E+01   5.850204E+01   5.850204E+01   5.850204E+01   5.211741E+01   5.211741E+01   5.211741E+01   5.211741E+01   5.211741E+01   5.885645E+01   5.885645E+01   5.885645E+01   5.885645E+01   6.408197E+01   6.408197E+01   6.408197E+01   5.831242E+01   5.831242E+01   9.020868E+01   9.020868E+01   3.996118E+01   3.996118E+01   4.999946E+01   2.025150E+01   6.771591E+00   6.771591E+00   9.581058E+00   2.480129E+01   1.614697E+01   2.474185E+01   7.251166E+01   1.418561E+01   2.485783E+01   3.233519E+01   4.788007E+01   1.611526E+01   9.874579E+01   1.141924E+02   2.692083E+02   7.731950E+01   2.811656E+01   1.354647E+01   2.832815E+01   7.005234E+00   1.132022E+01   2.058653E+01   1.715705E+01   9.092198E+00   1.862299E+01   1.712228E+01   3.074801E+01   2.532475E+01   1.274548E+02   4.845252E+01   7.907498E+01   7.002740E+01   1.206913E+02   8.522136E+01   1.041482E+02   1.075273E+02   4.046279E+01   2.394583E+01   6.757875E+00   8.639068E+00   4.705023E+00