# LPF package for  MODFLOW-2005, generated by Flopy.
        53    -1E+30         0  
         1
         0
   0.000000E+00
         0
         0
INTERNAL               1 (207E15.6) -1 #hk layer 1                    
   3.968275E-02   1.130988E-02   3.190358E-02   3.821067E-02   3.398579E-02   4.949241E-02   5.603553E-02   6.740939E-02   6.166148E-02   9.069218E-02   1.014313E-01   4.494652E-02   3.923361E-02   1.316503E-02   1.160474E-02   1.902203E-02   2.779269E-02   2.039229E-02   4.575637E-02   2.350270E-02   1.831941E-02   1.806089E-02   3.916138E-02   3.637474E-02   4.298737E-02   1.333572E-02   5.813643E-02   1.087809E-01   6.838167E-02   3.322214E-02   1.725091E-02   3.960476E-02   9.065565E-02   8.414533E-02   9.012636E-02   6.456863E-02   2.909371E-02   2.503905E-02   1.604929E-02   1.052399E-02   7.750112E-03   1.447908E-02   1.241774E-02   5.848899E-03   5.665060E-03   1.409078E-02   2.799515E-02   4.058915E-02   1.674904E-02   3.269031E-02   1.155825E-02   2.755996E-02   2.351723E-02   2.994239E-02   8.520806E-02   4.530621E-02   1.674088E-02   4.788160E-02   4.016956E-02   9.589299E-02   6.116061E-02   3.534501E-02   5.458822E-02   6.135873E-02   5.992626E-02   6.755890E-02   1.250061E-01   5.305908E-02   6.551046E-03   1.702020E-02   3.386031E-02   5.710164E-02   1.590755E-02   2.281758E-02   1.981337E-02   2.577360E-02   4.905080E-02   3.300319E-02   1.727123E-02   9.299628E-03   8.577959E-03   1.110547E-02   6.615764E-03   9.546152E-03   2.700947E-02   1.821374E-02   6.673289E-02   4.996755E-02   5.382259E-02   8.979009E-02   8.979009E-02   1.379735E-01   1.023149E-01   1.023149E-01   1.057608E-01   6.549850E-02   6.549850E-02   3.088768E-01   3.088768E-01   3.088768E-01   1.345803E-01   1.345803E-01   1.345803E-01   9.885669E-02   9.885669E-02   9.885669E-02   9.885669E-02   9.885669E-02   8.891112E-02   8.891112E-02   8.891112E-02   8.891112E-02   8.891112E-02   3.416146E-02   3.416146E-02   3.416146E-02   3.416146E-02   3.416146E-02   3.416146E-02   3.416146E-02   1.532449E-02   1.532449E-02   1.532449E-02   1.532449E-02   1.532449E-02   1.532449E-02   1.532449E-02   1.532449E-02   1.532449E-02   1.532449E-02   1.433088E-02   1.433088E-02   1.433088E-02   1.433088E-02   1.433088E-02   1.433088E-02   1.433088E-02   1.433088E-02   1.433088E-02   5.565647E-02   5.565647E-02   5.565647E-02   5.565647E-02   5.565647E-02   5.565647E-02   5.565647E-02   1.552347E-02   1.552347E-02   1.552347E-02   1.552347E-02   1.552347E-02   1.971377E-02   1.971377E-02   1.971377E-02   1.971377E-02   1.415852E-02   1.415852E-02   1.415852E-02   3.040955E-03   3.040955E-03   4.558927E-03   4.558927E-03   7.222526E-03   7.222526E-03   9.990267E-03   1.386250E-02   2.827909E-02   2.827909E-02   1.267767E-02   1.774657E-02   1.058583E-02   9.663636E-03   1.280402E-02   2.056889E-02   4.540557E-02   4.198964E-02   1.520198E-01   1.201876E-01   7.656274E-02   3.273429E-02   1.890042E-02   1.416241E-02   1.973058E-02   2.371876E-02   2.448287E-02   1.042917E-02   1.741165E-02   3.971778E-02   4.580263E-02   1.202720E-02   3.391837E-02   3.543066E-02   4.079701E-02   3.318694E-02   5.391581E-02   7.559285E-02   8.660664E-02   8.549973E-02   1.004397E-01   8.028702E-02   4.178650E-02   1.004849E-01   6.033476E-02   4.702132E-02   4.072624E-02   1.562845E-02   7.371387E-03
   4.416529E-02   3.285257E-02   4.046166E-02   3.289573E-02   5.665378E-02   8.277423E-02   6.996012E-02   9.572511E-02   3.903129E-02   7.558830E-02   5.640958E-02   5.772542E-02   1.324938E-02   1.367655E-02   7.463120E-03   2.443340E-02   2.132533E-02   3.617620E-02   3.087204E-02   4.382356E-02   1.212157E-02   6.120758E-03   2.917935E-02   4.080999E-02   2.480523E-02   6.414422E-03   1.323915E-02   3.326502E-02   3.472245E-02   3.461586E-02   3.745112E-02   2.149722E-02   1.458640E-01   2.015632E-01   1.604616E-01   1.218818E-01   7.961388E-02   1.590046E-02   3.984743E-02   2.418914E-02   8.165361E-03   2.593549E-02   2.528065E-02   2.072839E-02   6.447186E-03   1.296350E-02   5.525151E-02   2.444690E-02   1.770248E-02   4.536118E-02   1.795416E-02   2.748300E-02   2.097715E-02   3.570095E-02   1.215721E-01   2.384405E-02   2.584727E-02   5.052930E-02   8.712472E-02   3.986018E-02   5.443346E-02   6.593389E-02   5.690166E-02   1.000834E-01   6.276812E-02   8.820771E-02   7.630309E-02   4.195790E-02   5.779376E-03   1.404823E-02   3.102038E-02   5.127027E-02   1.687648E-02   2.542246E-02   3.493400E-02   3.092820E-02   4.674466E-02   3.063245E-02   2.140099E-02   1.235663E-02   1.102376E-02   4.661569E-03   9.972689E-03   8.512947E-03   4.036294E-02   3.042568E-02   3.903292E-02   5.022256E-02   6.320310E-02   9.950602E-02   9.950602E-02   1.508627E-01   1.477170E-01   1.477170E-01   1.019658E-01   6.026254E-02   6.026254E-02   3.241360E-01   3.241360E-01   3.241360E-01   2.456979E-01   2.456979E-01   2.456979E-01   1.605709E-01   1.605709E-01   1.605709E-01   1.605709E-01   1.605709E-01   5.033391E-02   5.033391E-02   5.033391E-02   5.033391E-02   5.033391E-02   4.586925E-02   4.586925E-02   4.586925E-02   4.586925E-02   4.586925E-02   4.586925E-02   4.586925E-02   6.945932E-03   6.945932E-03   6.945932E-03   6.945932E-03   6.945932E-03   6.945932E-03   6.945932E-03   6.945932E-03   6.945932E-03   6.945932E-03   1.956695E-02   1.956695E-02   1.956695E-02   1.956695E-02   1.956695E-02   1.956695E-02   1.956695E-02   1.956695E-02   1.956695E-02   5.998896E-02   5.998896E-02   5.998896E-02   5.998896E-02   5.998896E-02   5.998896E-02   5.998896E-02   1.448296E-02   1.448296E-02   1.448296E-02   1.448296E-02   1.448296E-02   1.858374E-02   1.858374E-02   1.858374E-02   1.858374E-02   1.852426E-02   1.852426E-02   1.852426E-02   1.178516E-02   1.178516E-02   3.984079E-03   3.984079E-03   1.004692E-02   1.004692E-02   2.000091E-02   2.803124E-02   2.733665E-02   2.733665E-02   2.673652E-02   2.553699E-02   2.649239E-02   1.586917E-02   2.277656E-02   2.933057E-02   2.576426E-02   4.257465E-02   4.839012E-02   6.271732E-02   5.356446E-02   2.305245E-02   1.414803E-02   9.940564E-03   3.182237E-02   1.459492E-02   2.148563E-02   9.543614E-03   4.533947E-03   2.801174E-02   2.276229E-02   8.913638E-03   1.204968E-02   1.913093E-02   3.738352E-02   5.320716E-02   1.032493E-01   6.512278E-02   8.764158E-02   7.128174E-02   1.213310E-01   1.230430E-01   1.490870E-01   1.054972E-01   5.853767E-02   4.023760E-02   2.530798E-02   3.123382E-02   1.602617E-02
   4.443232E-02   5.209113E-02   4.194244E-02   7.991984E-02   1.071261E-01   8.657941E-02   7.686312E-02   9.784769E-02   8.008581E-02   5.063558E-02   5.544824E-02   2.619855E-02   9.971314E-03   2.803453E-02   9.189166E-03   4.934459E-02   3.008862E-02   3.085693E-02   1.808161E-02   2.606857E-02   1.273773E-02   9.356640E-03   1.813711E-02   2.596802E-02   2.109373E-02   1.855377E-02   9.365479E-03   2.178189E-02   2.359336E-02   3.308663E-02   3.469439E-02   3.110079E-02   2.727448E-01   1.577764E-01   1.915755E-01   8.717410E-02   6.813627E-02   5.310835E-02   3.463147E-02   3.986767E-02   2.642999E-02   3.334531E-02   2.685789E-02   2.260182E-02   2.000993E-02   1.381848E-02   1.585535E-02   1.723739E-02   1.650424E-02   3.265641E-02   3.525619E-02   3.395128E-02   2.014522E-02   4.510242E-02   4.019945E-02   3.562265E-02   3.749830E-02   3.618240E-02   4.691378E-02   3.067997E-02   3.604148E-02   3.098554E-02   6.919602E-02   1.651442E-01   5.980840E-02   1.197652E-01   4.631694E-02   4.966468E-02   1.058521E-02   1.101093E-02   2.352806E-02   4.140707E-02   2.581653E-02   2.205282E-02   1.397972E-02   3.370018E-02   4.819029E-02   1.987976E-02   3.569162E-02   2.647863E-02   6.531153E-03   7.636747E-03   1.376414E-02   1.334116E-02   4.671302E-02   2.950707E-02   3.855109E-02   6.690308E-02   5.011345E-02   7.379808E-02   7.379808E-02   1.233479E-01   1.668873E-01   1.668873E-01   1.226795E-01   9.866357E-02   9.866357E-02   1.522677E-01   1.522677E-01   1.522677E-01   1.819609E-01   1.819609E-01   1.819609E-01   7.675302E-02   7.675302E-02   7.675302E-02   7.675302E-02   7.675302E-02   2.892930E-02   2.892930E-02   2.892930E-02   2.892930E-02   2.892930E-02   2.785071E-02   2.785071E-02   2.785071E-02   2.785071E-02   2.785071E-02   2.785071E-02   2.785071E-02   9.227755E-03   9.227755E-03   9.227755E-03   9.227755E-03   9.227755E-03   9.227755E-03   9.227755E-03   9.227755E-03   9.227755E-03   9.227755E-03   1.740371E-02   1.740371E-02   1.740371E-02   1.740371E-02   1.740371E-02   1.740371E-02   1.740371E-02   1.740371E-02   1.740371E-02   2.970400E-02   2.970400E-02   2.970400E-02   2.970400E-02   2.970400E-02   2.970400E-02   2.970400E-02   1.523588E-02   1.523588E-02   1.523588E-02   1.523588E-02   1.523588E-02   4.289345E-02   4.289345E-02   4.289345E-02   4.289345E-02   1.777847E-02   1.777847E-02   1.777847E-02   1.011036E-02   1.011036E-02   3.656462E-03   3.656462E-03   7.547615E-03   7.547615E-03   2.067246E-02   3.287351E-02   2.953333E-02   2.953333E-02   3.651405E-02   4.598882E-02   6.953428E-02   2.971463E-02   2.813789E-02   2.671511E-02   1.625780E-02   3.621333E-02   2.946877E-02   7.641716E-02   2.743480E-02   3.441006E-02   1.180337E-02   1.151339E-02   2.001131E-02   2.734150E-02   2.252336E-02   9.894180E-03   3.213405E-03   9.695704E-03   1.018516E-02   5.885953E-03   1.644811E-02   3.792852E-02   2.486792E-02   9.313162E-02   5.932393E-02   5.673384E-02   7.092544E-02   6.114860E-02   6.700397E-02   9.075157E-02   1.448965E-01   5.391475E-02   3.636804E-02   3.834815E-02   6.998096E-02   2.144094E-02   2.327107E-02
   1.293738E-01   9.559525E-02   8.667871E-02   9.834556E-02   1.717827E-01   9.502629E-02   1.375644E-01   1.036559E-01   9.835099E-02   8.190791E-02   4.275224E-02   2.270972E-02   1.123564E-02   6.850690E-02   1.813542E-02   4.493732E-02   2.595655E-02   1.948567E-02   2.654205E-02   2.072671E-02   8.522586E-03   8.366243E-03   1.238387E-02   1.867451E-02   3.101705E-02   2.705645E-02   1.473177E-02   2.300750E-02   2.235769E-02   2.226451E-02   2.010644E-02   5.966703E-02   1.958854E-01   7.415064E-02   1.157150E-01   8.361015E-02   6.764473E-02   2.536631E-02   5.312365E-02   5.397436E-02   3.362876E-02   2.496057E-02   8.542638E-02   3.265193E-02   6.368661E-02   2.760885E-02   2.590962E-02   3.432628E-02   1.364953E-02   2.991255E-02   4.122085E-02   2.893005E-02   1.394649E-02   3.578575E-02   3.837900E-02   5.697850E-02   1.070036E-01   6.972804E-02   9.372343E-02   6.452395E-02   4.720667E-02   7.048193E-02   7.646210E-02   1.120747E-01   9.281246E-02   1.233554E-01   5.198499E-02   4.971904E-02   3.288631E-02   2.669809E-02   8.712779E-03   1.633574E-02   3.084675E-02   2.060006E-02   2.972330E-02   1.131800E-02   4.881278E-02   2.158777E-02   1.884858E-02   2.357154E-02   6.860023E-03   1.365258E-02   7.865505E-03   2.064373E-02   2.804715E-02   4.745702E-02   2.719440E-02   6.658972E-02   5.357900E-02   1.990475E-01   1.990475E-01   1.596064E-01   2.386248E-01   2.386248E-01   1.397371E-01   7.808698E-02   7.808698E-02   8.839203E-02   8.839203E-02   8.839203E-02   1.036655E-01   1.036655E-01   1.036655E-01   9.397253E-02   9.397253E-02   9.397253E-02   9.397253E-02   9.397253E-02   2.288367E-02   2.288367E-02   2.288367E-02   2.288367E-02   2.288367E-02   2.548148E-02   2.548148E-02   2.548148E-02   2.548148E-02   2.548148E-02   2.548148E-02   2.548148E-02   3.448502E-02   3.448502E-02   3.448502E-02   3.448502E-02   3.448502E-02   3.448502E-02   3.448502E-02   3.448502E-02   3.448502E-02   3.448502E-02   3.346908E-02   3.346908E-02   3.346908E-02   3.346908E-02   3.346908E-02   3.346908E-02   3.346908E-02   3.346908E-02   3.346908E-02   1.727102E-02   1.727102E-02   1.727102E-02   1.727102E-02   1.727102E-02   1.727102E-02   1.727102E-02   1.699552E-02   1.699552E-02   1.699552E-02   1.699552E-02   1.699552E-02   4.081615E-02   4.081615E-02   4.081615E-02   4.081615E-02   2.332191E-02   2.332191E-02   2.332191E-02   9.996035E-03   9.996035E-03   4.790142E-03   4.790142E-03   3.428699E-03   3.428699E-03   1.905863E-02   4.195632E-02   5.067481E-02   5.067481E-02   4.090355E-02   3.096022E-02   4.632668E-02   3.868254E-02   1.269712E-01   2.093386E-02   1.603037E-02   1.724828E-02   1.516947E-02   4.340292E-02   1.980490E-02   2.350598E-02   1.216165E-02   1.250129E-02   2.906930E-02   2.131561E-02   2.683838E-02   1.397436E-02   8.701938E-03   5.161957E-03   1.641675E-02   1.173737E-02   1.210132E-02   5.838323E-02   4.100154E-02   8.512562E-02   5.085407E-02   5.060086E-02   4.500448E-02   3.458249E-02   5.325260E-02   6.116520E-02   1.067538E-01   2.279400E-02   2.968002E-02   4.577551E-02   6.927701E-02   1.407789E-02   1.736036E-02
   6.439801E-02   7.781680E-02   1.217500E-01   1.313151E-01   2.752182E-01   9.098880E-02   2.129527E-01   7.386339E-02   8.554774E-02   6.839588E-02   2.827761E-02   1.752163E-02   1.264631E-02   2.737262E-02   1.644369E-02   3.887259E-02   4.817572E-02   2.038237E-02   3.047497E-02   3.739948E-02   1.684393E-02   1.534110E-02   9.965813E-03   2.089024E-02   1.741861E-02   1.921661E-02   1.119787E-02   9.813135E-03   3.159916E-02   3.190722E-02   1.968995E-02   3.098592E-02   2.013205E-01   5.145799E-02   5.426162E-02   4.410259E-02   2.467044E-02   2.901956E-02   4.082911E-02   9.227215E-02   7.810014E-02   4.518039E-02   3.636680E-02   3.108818E-02   1.735344E-01   3.870449E-02   1.813479E-02   4.030988E-02   2.420040E-02   3.147715E-02   3.579649E-02   2.503787E-02   2.051129E-02   3.053043E-02   2.307424E-02   4.383354E-02   1.577763E-01   1.378544E-01   9.608552E-02   6.810224E-02   8.441556E-02   1.822760E-01   6.118935E-02   5.098743E-02   4.741840E-02   1.154693E-01   1.294370E-01   2.376032E-02   2.806347E-02   1.352980E-02   3.601358E-03   5.433399E-03   2.219933E-02   1.899574E-02   2.619539E-02   1.112973E-02   2.163056E-02   1.126546E-02   2.864410E-02   2.433592E-02   5.440841E-03   1.027082E-02   8.606528E-03   1.816492E-02   4.226563E-02   1.025668E-01   1.355394E-01   1.412143E-01   1.275580E-01   5.633064E-02   5.633064E-02   2.303836E-01   1.490975E-01   1.490975E-01   6.563181E-02   1.764818E-01   1.764818E-01   7.908987E-02   7.908987E-02   7.908987E-02   1.065150E-01   1.065150E-01   1.065150E-01   1.465545E-01   1.465545E-01   1.465545E-01   1.465545E-01   1.465545E-01   2.609653E-02   2.609653E-02   2.609653E-02   2.609653E-02   2.609653E-02   4.236981E-02   4.236981E-02   4.236981E-02   4.236981E-02   4.236981E-02   4.236981E-02   4.236981E-02   3.321619E-02   3.321619E-02   3.321619E-02   3.321619E-02   3.321619E-02   3.321619E-02   3.321619E-02   3.321619E-02   3.321619E-02   3.321619E-02   6.926823E-02   6.926823E-02   6.926823E-02   6.926823E-02   6.926823E-02   6.926823E-02   6.926823E-02   6.926823E-02   6.926823E-02   2.172101E-02   2.172101E-02   2.172101E-02   2.172101E-02   2.172101E-02   2.172101E-02   2.172101E-02   2.285480E-02   2.285480E-02   2.285480E-02   2.285480E-02   2.285480E-02   7.238088E-02   7.238088E-02   7.238088E-02   7.238088E-02   4.583299E-02   4.583299E-02   4.583299E-02   1.543921E-02   1.543921E-02   7.185769E-03   7.185769E-03   3.448000E-03   3.448000E-03   2.267046E-02   8.972394E-02   9.502247E-02   9.502247E-02   7.106322E-02   3.160557E-02   5.143347E-02   3.675562E-02   1.198015E-01   1.720895E-02   1.843691E-02   1.630783E-02   2.028663E-02   3.247922E-02   4.483441E-02   1.196375E-02   7.409859E-03   1.458799E-02   1.394975E-02   6.242179E-02   3.147281E-02   3.607176E-02   2.129055E-02   4.515764E-03   8.989915E-03   1.373835E-02   1.196867E-02   9.824898E-02   4.778891E-02   6.908982E-02   4.568179E-02   4.192542E-02   4.493848E-02   2.962281E-02   4.589272E-02   8.928327E-02   6.909081E-02   1.814963E-02   9.560020E-02   7.619020E-02   3.380013E-02   1.453501E-02   6.034373E-03
   7.175516E-02   3.986706E-01   1.069528E-01   2.558607E-01   1.964548E-01   8.277065E-02   1.285130E-01   5.425476E-02   6.810345E-02   3.208703E-02   4.274914E-02   2.090802E-02   9.268049E-03   2.126865E-02   7.334322E-03   2.306911E-02   8.145966E-02   4.659634E-02   3.555681E-02   5.242730E-02   3.229599E-02   2.719905E-02   1.908091E-02   2.023864E-02   1.746012E-02   2.134768E-02   1.635798E-02   1.969071E-02   3.402249E-02   2.454821E-02   2.373532E-02   1.428455E-02   1.563423E-01   8.306786E-02   8.763788E-02   7.773309E-02   2.900157E-02   3.337496E-02   5.142109E-02   1.859449E-01   1.162797E-01   3.021947E-02   2.690136E-02   6.281517E-02   9.192029E-02   3.639722E-02   2.812527E-02   5.357456E-02   1.609228E-02   1.651049E-02   9.803956E-03   3.200310E-02   3.869289E-02   1.789846E-02   4.357142E-02   7.243835E-02   5.544401E-02   1.822442E-01   1.758107E-01   3.542322E-02   5.906497E-02   1.183730E-01   4.987831E-02   6.444623E-02   5.426924E-02   7.927212E-02   1.059998E-01   4.184642E-02   2.025920E-02   6.132238E-03   4.044431E-03   4.276218E-03   3.092505E-02   1.762690E-02   2.824487E-02   1.103612E-02   1.037375E-02   1.343203E-02   2.820493E-02   1.440286E-02   1.228081E-02   7.293718E-03   1.774258E-02   1.441419E-02   2.711090E-02   1.070508E-01   6.774217E-02   5.106686E-02   5.742677E-02   2.784935E-02   2.784935E-02   5.325547E-02   1.533405E-01   1.533405E-01   6.505751E-02   8.085299E-02   8.085299E-02   9.456094E-02   9.456094E-02   9.456094E-02   1.430092E-01   1.430092E-01   1.430092E-01   5.639893E-02   5.639893E-02   5.639893E-02   5.639893E-02   5.639893E-02   5.653312E-02   5.653312E-02   5.653312E-02   5.653312E-02   5.653312E-02   5.492824E-02   5.492824E-02   5.492824E-02   5.492824E-02   5.492824E-02   5.492824E-02   5.492824E-02   3.486231E-02   3.486231E-02   3.486231E-02   3.486231E-02   3.486231E-02   3.486231E-02   3.486231E-02   3.486231E-02   3.486231E-02   3.486231E-02   1.653883E-01   1.653883E-01   1.653883E-01   1.653883E-01   1.653883E-01   1.653883E-01   1.653883E-01   1.653883E-01   1.653883E-01   1.702113E-02   1.702113E-02   1.702113E-02   1.702113E-02   1.702113E-02   1.702113E-02   1.702113E-02   4.611491E-02   4.611491E-02   4.611491E-02   4.611491E-02   4.611491E-02   1.003102E-01   1.003102E-01   1.003102E-01   1.003102E-01   4.890791E-02   4.890791E-02   4.890791E-02   1.787904E-02   1.787904E-02   9.482693E-03   9.482693E-03   8.832121E-03   8.832121E-03   3.684730E-02   5.107938E-02   1.023117E-01   1.023117E-01   5.625828E-02   2.585104E-02   3.572951E-02   6.298444E-02   9.747571E-02   1.888170E-02   2.166019E-02   2.780878E-02   2.227372E-02   4.723573E-02   8.197034E-02   3.057239E-02   1.487177E-02   1.870830E-02   1.395682E-02   2.944886E-02   3.749496E-02   2.096803E-02   1.169750E-02   7.078366E-03   7.749795E-03   1.755300E-02   1.951333E-02   5.718825E-02   9.800289E-02   2.684864E-02   2.804247E-02   2.661043E-02   1.706124E-02   2.189428E-02   3.994010E-02   4.423046E-02   5.440570E-02   3.964388E-02   5.532733E-02   1.027867E-01   4.583398E-02   1.457086E-02   1.034718E-02
   1.032315E-01   5.408702E-01   2.697566E-01   4.524723E-01   2.025703E-01   1.202724E-01   4.219418E-02   5.651902E-02   7.023805E-02   5.039226E-02   8.556041E-02   2.913771E-02   8.483756E-03   8.619813E-03   6.589236E-03   1.902770E-02   5.930314E-02   4.145926E-02   1.819624E-02   2.717623E-02   1.677562E-02   2.590438E-02   5.712911E-02   3.701264E-02   2.583915E-02   3.626720E-02   6.664427E-03   2.660782E-02   1.863249E-02   5.241888E-02   4.856566E-02   2.080191E-02   8.116961E-02   1.383506E-01   6.373350E-02   3.901540E-02   6.034385E-02   9.160093E-02   4.818838E-02   2.785119E-02   3.591333E-02   2.170412E-02   6.063576E-02   6.075879E-02   6.472225E-02   3.801828E-02   2.902034E-02   1.574264E-02   1.090250E-02   9.987870E-03   1.078761E-02   2.006188E-02   2.574982E-02   1.735369E-02   4.224887E-02   6.309995E-02   7.018528E-02   1.227459E-01   1.073197E-01   2.031449E-02   4.061668E-02   9.345340E-02   8.837259E-02   4.268974E-02   4.616765E-02   8.459824E-02   6.107950E-02   5.736506E-02   3.294414E-02   7.002427E-03   5.906607E-03   1.003170E-02   2.095292E-02   2.408331E-02   1.958427E-02   1.886243E-02   1.751844E-02   1.133326E-02   2.995851E-02   9.679991E-03   1.338409E-02   1.087131E-02   2.108789E-02   5.212114E-02   4.739410E-02   1.063749E-01   1.440836E-01   6.737707E-02   4.014030E-02   4.238802E-02   4.238802E-02   4.066692E-02   8.135943E-02   8.135943E-02   8.338785E-02   5.987852E-02   5.987852E-02   1.001688E-01   1.001688E-01   1.001688E-01   1.368860E-01   1.368860E-01   1.368860E-01   5.883337E-02   5.883337E-02   5.883337E-02   5.883337E-02   5.883337E-02   4.761459E-02   4.761459E-02   4.761459E-02   4.761459E-02   4.761459E-02   5.170597E-02   5.170597E-02   5.170597E-02   5.170597E-02   5.170597E-02   5.170597E-02   5.170597E-02   1.987345E-02   1.987345E-02   1.987345E-02   1.987345E-02   1.987345E-02   1.987345E-02   1.987345E-02   1.987345E-02   1.987345E-02   1.987345E-02   8.970003E-02   8.970003E-02   8.970003E-02   8.970003E-02   8.970003E-02   8.970003E-02   8.970003E-02   8.970003E-02   8.970003E-02   3.024056E-02   3.024056E-02   3.024056E-02   3.024056E-02   3.024056E-02   3.024056E-02   3.024056E-02   1.117340E-01   1.117340E-01   1.117340E-01   1.117340E-01   1.117340E-01   1.349680E-01   1.349680E-01   1.349680E-01   1.349680E-01   4.271012E-02   4.271012E-02   4.271012E-02   1.660948E-02   1.660948E-02   1.054631E-02   1.054631E-02   2.694716E-02   2.694716E-02   5.651361E-02   3.380696E-02   4.973864E-02   4.973864E-02   2.441157E-02   2.572786E-02   1.927929E-02   2.104452E-02   5.367741E-02   2.913845E-02   3.437217E-02   2.408554E-02   3.095800E-02   3.790604E-02   2.801371E-02   4.209362E-02   2.553121E-02   1.314649E-02   1.931588E-02   4.630191E-02   1.270464E-01   2.227703E-02   1.916897E-02   8.660443E-03   1.842067E-02   2.353614E-02   4.502183E-02   1.000480E-01   5.814574E-02   2.418160E-02   2.311396E-02   2.174072E-02   1.403407E-02   1.627827E-02   3.466918E-02   4.310641E-02   4.741307E-02   6.766802E-02   4.757344E-02   5.641151E-02   4.132928E-02   8.722396E-03   1.656653E-02
   8.564483E-02   2.253418E-01   1.672219E-01   1.805710E-01   3.692837E-01   6.658903E-02   7.486375E-02   1.912767E-01   8.206403E-02   6.612198E-02   1.385710E-01   3.108258E-02   1.787982E-02   9.948045E-03   8.001441E-03   1.671700E-02   3.035548E-02   4.159134E-02   2.695345E-02   2.346405E-02   2.968978E-02   1.774155E-02   5.419680E-02   2.890658E-02   9.112567E-03   2.542693E-02   1.344810E-02   9.188819E-03   1.656814E-02   2.082891E-02   1.789203E-02   2.701464E-02   8.772505E-02   3.589364E-02   9.135028E-02   5.075233E-02   3.359579E-02   5.043353E-02   4.775324E-02   1.270955E-02   2.900952E-02   2.073974E-02   6.300841E-02   8.771147E-02   1.063565E-01   4.599073E-02   2.763701E-02   1.697366E-02   1.337524E-02   5.020440E-03   8.886780E-03   1.224682E-02   3.210779E-02   2.762635E-02   4.500053E-02   5.536189E-02   4.621132E-02   5.841543E-02   2.613229E-02   2.808343E-02   3.447317E-02   1.074996E-01   7.097863E-02   3.555081E-02   2.057086E-02   3.831444E-02   1.156409E-01   1.359135E-01   5.790305E-02   2.955934E-02   1.392019E-02   1.146333E-02   1.743482E-02   2.227245E-02   2.434258E-02   4.561723E-02   4.956593E-02   2.710901E-02   2.366456E-02   1.220662E-02   5.785413E-03   8.170561E-03   3.065510E-02   6.583153E-02   6.846286E-02   1.536247E-01   7.732314E-02   1.832099E-01   2.921605E-02   4.797574E-02   4.797574E-02   4.654542E-02   7.700231E-02   7.700231E-02   5.500477E-02   7.092745E-02   7.092745E-02   2.030532E-01   2.030532E-01   2.030532E-01   1.166125E-01   1.166125E-01   1.166125E-01   6.310593E-02   6.310593E-02   6.310593E-02   6.310593E-02   6.310593E-02   5.959424E-02   5.959424E-02   5.959424E-02   5.959424E-02   5.959424E-02   4.012135E-02   4.012135E-02   4.012135E-02   4.012135E-02   4.012135E-02   4.012135E-02   4.012135E-02   7.561044E-02   7.561044E-02   7.561044E-02   7.561044E-02   7.561044E-02   7.561044E-02   7.561044E-02   7.561044E-02   7.561044E-02   7.561044E-02   5.079116E-02   5.079116E-02   5.079116E-02   5.079116E-02   5.079116E-02   5.079116E-02   5.079116E-02   5.079116E-02   5.079116E-02   6.743765E-02   6.743765E-02   6.743765E-02   6.743765E-02   6.743765E-02   6.743765E-02   6.743765E-02   2.364133E-01   2.364133E-01   2.364133E-01   2.364133E-01   2.364133E-01   1.589521E-01   1.589521E-01   1.589521E-01   1.589521E-01   6.373702E-02   6.373702E-02   6.373702E-02   6.519436E-02   6.519436E-02   1.026838E-02   1.026838E-02   2.975935E-02   2.975935E-02   1.071345E-01   7.053934E-02   3.845389E-02   3.845389E-02   4.841476E-02   2.462834E-02   1.427987E-02   1.355255E-02   5.110253E-02   2.149198E-02   2.583160E-02   1.563591E-02   1.716908E-02   3.904194E-02   1.779521E-02   3.215484E-02   3.826195E-02   1.134042E-02   4.655848E-02   7.683473E-02   7.517847E-02   4.049416E-02   1.458468E-02   1.626938E-02   1.153143E-02   2.117708E-02   3.041243E-02   1.842904E-02   5.000716E-02   2.137713E-02   2.784864E-02   2.213449E-02   8.914534E-03   1.334494E-02   4.692866E-02   7.261740E-02   2.633927E-02   7.296450E-02   5.011762E-02   2.142967E-02   2.206080E-02   7.654679E-03   1.165548E-02
   6.538614E-02   1.605155E-01   6.555580E-02   1.410799E-01   2.522150E-01   6.500625E-02   8.229198E-02   2.096671E-01   5.726071E-02   6.990886E-02   1.127469E-01   3.155696E-02   2.373495E-02   1.618797E-02   1.651959E-02   3.201295E-02   3.074378E-02   2.911014E-02   1.262395E-02   1.956425E-02   2.734736E-02   2.687511E-02   7.481513E-02   2.545052E-02   1.825809E-02   3.571579E-02   1.015839E-02   1.433775E-02   1.874635E-02   3.011732E-02   2.198453E-02   3.103723E-02   6.828738E-02   3.877180E-02   5.697549E-02   7.453685E-02   3.462539E-02   7.017406E-02   7.412443E-02   2.964663E-02   4.397517E-02   2.310640E-02   5.824306E-02   1.607486E-01   2.201034E-01   1.289761E-01   3.444688E-02   2.806591E-02   1.078560E-02   7.268289E-03   1.717604E-02   1.363354E-02   2.172956E-02   1.351542E-02   2.268163E-02   3.675124E-02   3.395759E-02   2.138184E-02   3.069461E-02   1.889543E-02   5.228399E-02   3.779916E-02   6.447831E-02   2.796738E-02   3.296974E-02   3.782681E-02   8.356899E-02   9.248993E-02   5.586516E-02   4.417200E-02   1.317107E-02   2.683057E-02   1.780098E-02   6.885238E-02   2.374380E-02   3.954699E-02   4.892197E-02   4.567313E-02   1.179841E-02   1.258578E-02   7.194457E-03   2.573211E-02   3.800054E-02   9.372194E-02   2.571342E-02   5.030997E-02   1.049137E-01   7.306294E-02   2.653683E-02   7.362159E-02   7.362159E-02   3.238919E-02   1.086925E-01   1.086925E-01   4.256437E-02   6.340536E-02   6.340536E-02   1.189030E-01   1.189030E-01   1.189030E-01   7.984775E-02   7.984775E-02   7.984775E-02   6.484932E-02   6.484932E-02   6.484932E-02   6.484932E-02   6.484932E-02   5.953603E-02   5.953603E-02   5.953603E-02   5.953603E-02   5.953603E-02   9.814721E-02   9.814721E-02   9.814721E-02   9.814721E-02   9.814721E-02   9.814721E-02   9.814721E-02   5.507937E-02   5.507937E-02   5.507937E-02   5.507937E-02   5.507937E-02   5.507937E-02   5.507937E-02   5.507937E-02   5.507937E-02   5.507937E-02   9.382421E-02   9.382421E-02   9.382421E-02   9.382421E-02   9.382421E-02   9.382421E-02   9.382421E-02   9.382421E-02   9.382421E-02   8.902711E-02   8.902711E-02   8.902711E-02   8.902711E-02   8.902711E-02   8.902711E-02   8.902711E-02   3.709466E-01   3.709466E-01   3.709466E-01   3.709466E-01   3.709466E-01   1.178819E-01   1.178819E-01   1.178819E-01   1.178819E-01   4.235670E-02   4.235670E-02   4.235670E-02   1.625292E-01   1.625292E-01   1.116106E-02   1.116106E-02   4.734299E-02   4.734299E-02   1.292388E-01   4.944952E-02   1.277669E-02   1.277669E-02   5.087668E-02   2.857515E-02   1.241976E-02   1.807484E-02   2.934855E-02   2.311334E-02   1.212435E-02   2.180144E-02   2.611594E-02   1.831506E-02   1.563096E-02   2.417544E-02   3.235682E-02   1.242992E-02   5.719776E-02   3.945712E-02   8.384351E-02   4.074292E-02   2.377496E-02   1.082829E-02   4.381260E-02   3.686089E-02   3.651449E-02   2.091379E-02   4.302927E-02   1.177197E-02   1.098290E-02   3.582291E-02   1.044481E-02   1.739981E-02   2.357919E-02   3.903145E-02   2.833567E-02   3.951938E-02   3.199886E-02   2.337420E-02   1.957420E-02   8.294844E-03   9.228650E-03