# LPF package for  MODFLOW-2005, generated by Flopy.
        53    -1E+30         0  
         1
         0
   0.000000E+00
         0
         0
INTERNAL               1 (207E15.6) -1 #hk layer 1                    
   1.090223E+01   1.248095E+01   2.212923E+01   3.040894E+01   5.969592E+01   6.932261E+01   1.561929E+02   2.228701E+02   2.837310E+02   9.734042E+01   1.088191E+02   1.257413E+02   7.573238E+01   5.320177E+01   9.772315E+01   5.916537E+01   3.377813E+01   5.905841E+01   1.937224E+02   2.232412E+02   5.841023E+01   2.906449E+01   2.143790E+01   3.236764E+00   2.795808E+00   9.431964E+00   4.851432E+00   9.698397E+00   7.319781E+00   1.170389E+01   6.285044E+00   2.101235E+01   4.233206E+01   6.311185E+00   8.232569E+00   7.524723E+01   3.013647E+01   3.148201E+01   3.136203E+01   7.036069E+01   6.406247E+01   6.068045E+01   2.810487E+01   8.844516E+01   9.336371E+01   9.307422E+01   2.052903E+02   7.188706E+01   7.912516E+01   2.196101E+01   2.520977E+01   3.258207E+01   5.023869E+01   4.534885E+01   3.382452E+01   2.646075E+01   3.422011E+01   2.253371E+01   8.031545E+00   2.734210E+01   2.239989E+01   8.913273E+01   4.473004E+01   9.878661E+01   5.489905E+01   5.992735E+01   4.261940E+01   2.289631E+01   2.901073E+01   2.055723E+01   3.192786E+01   3.041971E+01   2.743487E+01   6.799809E+01   8.617627E+01   3.700705E+01   1.892044E+01   9.230186E+01   1.415104E+02   8.406168E+01   5.218604E+01   4.423944E+01   7.836421E+01   1.912104E+02   1.627944E+02   7.663303E+01   7.566586E+01   8.229468E+01   7.363677E+01   1.766992E+02   1.766992E+02   1.605382E+02   1.546530E+02   1.546530E+02   6.696307E+01   4.035585E+01   4.035585E+01   3.879438E+01   3.879438E+01   3.879438E+01   6.929303E+01   6.929303E+01   6.929303E+01   8.177639E+01   8.177639E+01   8.177639E+01   8.177639E+01   8.177639E+01   4.301564E+01   4.301564E+01   4.301564E+01   4.301564E+01   4.301564E+01   1.231950E+02   1.231950E+02   1.231950E+02   1.231950E+02   1.231950E+02   1.231950E+02   1.231950E+02   8.531863E+01   8.531863E+01   8.531863E+01   8.531863E+01   8.531863E+01   8.531863E+01   8.531863E+01   8.531863E+01   8.531863E+01   8.531863E+01   1.559930E+01   1.559930E+01   1.559930E+01   1.559930E+01   1.559930E+01   1.559930E+01   1.559930E+01   1.559930E+01   1.559930E+01   9.608437E+00   9.608437E+00   9.608437E+00   9.608437E+00   9.608437E+00   9.608437E+00   9.608437E+00   2.781776E+01   2.781776E+01   2.781776E+01   2.781776E+01   2.781776E+01   6.716795E+01   6.716795E+01   6.716795E+01   6.716795E+01   2.127360E+01   2.127360E+01   2.127360E+01   1.391682E+01   1.391682E+01   1.981351E+01   1.981351E+01   4.602127E+01   4.602127E+01   9.749105E+00   1.974003E+01   3.820436E+01   3.820436E+01   6.282740E+01   5.385521E+01   5.447469E+00   6.804669E+00   2.688680E+01   5.515439E+00   1.604286E+01   3.253101E+01   3.933059E+01   1.647304E+01   1.031324E+01   2.807189E+01   7.446564E+01   2.055573E+02   6.129681E+01   2.433247E+01   4.340237E+01   5.068104E+01   4.825183E+01   1.892743E+01   3.574408E+01   1.147594E+02   8.200870E+01   2.997171E+02   3.196697E+02   9.617464E+01   1.781098E+01   2.103692E+01   1.847740E+01   3.739210E+01   5.243597E+01   5.943625E+01   7.244778E+01   1.219038E+02   5.429441E+01   1.281682E+01   6.918165E+00   1.241275E+01   4.468994E+01
   4.967059E+01   2.291338E+01   2.078874E+01   1.938514E+01   2.328462E+01   7.079057E+01   1.783794E+02   3.422711E+02   2.316099E+02   5.430559E+01   8.091999E+01   6.832536E+01   7.327885E+01   7.221928E+01   8.569316E+01   6.622864E+01   5.222443E+01   4.633265E+01   2.512753E+02   1.508667E+02   4.349343E+01   3.226165E+01   2.335514E+01   6.666890E+00   8.373142E+00   1.486391E+01   9.115762E+00   7.181869E+00   6.341075E+00   9.259253E+00   1.013968E+01   2.064135E+01   2.754633E+01   5.579945E+00   6.572480E+00   1.819849E+01   2.456116E+01   2.664088E+01   2.226760E+01   5.475420E+01   5.795781E+01   4.056894E+01   2.585510E+01   4.883918E+01   3.349549E+01   7.742097E+01   1.542306E+02   6.155566E+01   5.890541E+01   4.398153E+01   9.843778E+01   4.429894E+01   5.517918E+01   4.519653E+01   2.630065E+01   3.568324E+01   2.640603E+01   1.093536E+01   5.811181E+00   2.557660E+01   3.200338E+01   8.195120E+01   5.555588E+01   1.141544E+02   4.450697E+01   5.985576E+01   7.914835E+01   2.999123E+01   2.339902E+01   2.118351E+01   4.085587E+01   3.525591E+01   4.704052E+01   1.142299E+02   5.629444E+01   1.502164E+01   1.594745E+01   8.175864E+01   1.255634E+02   6.975420E+01   5.110917E+01   7.483640E+01   6.012718E+01   1.828338E+02   2.736340E+02   6.530997E+01   4.206980E+01   6.532069E+01   9.374564E+01   1.930070E+02   1.930070E+02   6.395541E+01   6.530761E+01   6.530761E+01   1.222123E+02   1.051796E+02   1.051796E+02   1.042067E+02   1.042067E+02   1.042067E+02   1.518098E+02   1.518098E+02   1.518098E+02   1.350455E+02   1.350455E+02   1.350455E+02   1.350455E+02   1.350455E+02   4.487106E+01   4.487106E+01   4.487106E+01   4.487106E+01   4.487106E+01   1.253050E+02   1.253050E+02   1.253050E+02   1.253050E+02   1.253050E+02   1.253050E+02   1.253050E+02   5.377050E+01   5.377050E+01   5.377050E+01   5.377050E+01   5.377050E+01   5.377050E+01   5.377050E+01   5.377050E+01   5.377050E+01   5.377050E+01   1.394621E+01   1.394621E+01   1.394621E+01   1.394621E+01   1.394621E+01   1.394621E+01   1.394621E+01   1.394621E+01   1.394621E+01   6.748073E+00   6.748073E+00   6.748073E+00   6.748073E+00   6.748073E+00   6.748073E+00   6.748073E+00   2.268723E+01   2.268723E+01   2.268723E+01   2.268723E+01   2.268723E+01   4.730952E+01   4.730952E+01   4.730952E+01   4.730952E+01   2.366495E+01   2.366495E+01   2.366495E+01   2.213292E+01   2.213292E+01   2.556549E+01   2.556549E+01   4.406402E+01   4.406402E+01   2.485373E+01   1.432438E+01   3.100660E+01   3.100660E+01   7.873949E+01   4.513983E+01   1.456150E+01   4.465691E+00   5.294599E+01   2.458403E+01   7.304163E+00   4.033592E+01   4.389943E+01   1.839144E+01   6.802154E+00   1.792615E+01   5.944898E+01   7.980307E+01   3.369933E+01   2.257532E+01   6.416711E+01   4.015309E+01   6.026675E+01   1.730868E+01   4.272910E+01   1.145144E+02   5.440436E+01   2.892115E+02   3.268872E+02   1.078177E+02   3.015970E+01   2.933804E+01   2.789683E+01   4.302349E+01   2.723364E+01   8.085357E+01   8.574634E+01   1.037899E+02   7.370195E+01   1.860180E+01   9.459741E+00   1.066227E+01   1.613161E+01
   6.848409E+01   5.673932E+01   3.700678E+01   2.435036E+01   3.436777E+01   5.086105E+01   1.225501E+02   1.672702E+02   5.846829E+02   1.194676E+02   1.131679E+02   7.682270E+01   1.225382E+02   8.604604E+01   4.835424E+01   7.296164E+01   5.752777E+01   6.558579E+01   1.911840E+02   6.390657E+01   1.880672E+01   9.386585E+00   6.646091E+00   6.823755E+00   1.066662E+01   1.832130E+01   1.595187E+01   8.193198E+00   9.566586E+00   1.206853E+01   1.179039E+01   5.025221E+01   2.402214E+01   1.101030E+01   5.267955E+00   1.889424E+01   1.200968E+01   2.622458E+01   2.110730E+01   8.634686E+01   4.654844E+01   1.727277E+01   2.717126E+01   5.856905E+01   2.194765E+01   7.540363E+01   1.784319E+02   4.016453E+01   3.141410E+01   3.453759E+01   9.970788E+01   2.232186E+01   3.135307E+01   5.383254E+01   4.985412E+01   4.244564E+01   1.888471E+01   1.806240E+01   6.898927E+00   3.156083E+01   3.560180E+01   5.789872E+01   1.026575E+02   1.406407E+02   8.031532E+01   1.428109E+02   5.558119E+01   2.702983E+01   1.458058E+01   2.378940E+01   3.886548E+01   6.834322E+01   9.995129E+01   8.112894E+01   4.568160E+01   8.274827E+00   2.219061E+01   6.348148E+01   9.218407E+01   1.404297E+02   1.314327E+02   1.638333E+02   7.690015E+01   2.878267E+02   3.914935E+02   2.661625E+01   5.007890E+01   3.795084E+01   7.395914E+01   1.278593E+02   1.278593E+02   5.390354E+01   2.360395E+01   2.360395E+01   7.467413E+01   2.740976E+02   2.740976E+02   1.085202E+02   1.085202E+02   1.085202E+02   2.018089E+02   2.018089E+02   2.018089E+02   1.107362E+02   1.107362E+02   1.107362E+02   1.107362E+02   1.107362E+02   3.913764E+01   3.913764E+01   3.913764E+01   3.913764E+01   3.913764E+01   2.397289E+01   2.397289E+01   2.397289E+01   2.397289E+01   2.397289E+01   2.397289E+01   2.397289E+01   3.277846E+01   3.277846E+01   3.277846E+01   3.277846E+01   3.277846E+01   3.277846E+01   3.277846E+01   3.277846E+01   3.277846E+01   3.277846E+01   1.080139E+01   1.080139E+01   1.080139E+01   1.080139E+01   1.080139E+01   1.080139E+01   1.080139E+01   1.080139E+01   1.080139E+01   5.695045E+00   5.695045E+00   5.695045E+00   5.695045E+00   5.695045E+00   5.695045E+00   5.695045E+00   2.098729E+01   2.098729E+01   2.098729E+01   2.098729E+01   2.098729E+01   1.432563E+01   1.432563E+01   1.432563E+01   1.432563E+01   2.684099E+01   2.684099E+01   2.684099E+01   1.633625E+01   1.633625E+01   2.537858E+01   2.537858E+01   1.609247E+01   1.609247E+01   2.261322E+01   2.165602E+01   5.439177E+01   5.439177E+01   5.147335E+01   5.250191E+01   1.416072E+01   1.617246E+01   2.860130E+01   5.094595E+01   3.397399E+01   3.664264E+01   6.644564E+01   2.461826E+01   7.527956E+00   2.153867E+01   4.870948E+01   5.260960E+01   1.990930E+01   5.347358E+01   4.652215E+01   5.207833E+01   4.122680E+01   2.475547E+01   9.349078E+01   2.225569E+02   7.406299E+01   2.364441E+02   1.458451E+02   1.676511E+02   5.554989E+01   4.506660E+01   2.393225E+01   1.754850E+01   2.818974E+01   6.797205E+01   3.488936E+01   4.964572E+01   1.170994E+02   3.099344E+01   1.874735E+01   8.532935E+00   8.740597E+00
   9.113522E+01   7.252165E+01   4.040570E+01   2.649801E+01   3.823669E+01   3.063386E+01   6.664754E+01   1.159949E+02   3.178871E+02   2.753665E+02   1.949151E+02   9.246754E+01   1.777581E+02   7.389240E+01   1.464996E+02   1.129679E+02   9.352585E+01   6.067184E+01   6.026358E+01   1.908356E+01   2.048991E+01   7.783688E+00   5.471787E+00   8.246367E+00   9.998547E+00   1.341961E+01   2.278495E+01   9.473964E+00   9.676908E+00   1.636260E+01   1.843144E+01   5.084812E+01   7.427207E+01   2.467323E+01   8.562156E+00   9.252363E+00   1.753438E+01   1.730899E+01   2.331140E+01   7.247417E+01   3.814075E+01   1.088962E+01   9.121160E+00   2.467834E+01   2.098314E+01   9.385524E+01   1.565464E+02   3.524009E+01   2.977903E+01   3.176591E+01   7.510163E+01   4.303210E+01   3.898109E+01   1.122527E+02   1.333565E+02   3.418731E+01   1.854522E+01   1.688391E+01   9.886218E+00   2.399681E+01   4.651580E+01   1.081463E+02   1.669305E+02   1.665063E+02   1.307332E+02   1.182495E+02   6.589697E+01   3.645317E+01   1.500293E+01   3.980075E+01   2.813577E+01   4.539041E+01   6.203721E+01   5.946003E+01   3.159667E+01   9.187695E+00   2.605338E+01   6.159262E+01   1.015488E+02   1.292762E+02   1.526581E+02   2.467870E+02   1.569924E+02   3.967105E+02   3.995720E+02   8.590354E+01   6.624519E+01   4.321951E+01   3.473919E+01   8.222414E+01   8.222414E+01   4.480127E+01   2.078026E+01   2.078026E+01   3.168608E+01   9.715227E+01   9.715227E+01   7.491905E+01   7.491905E+01   7.491905E+01   1.438070E+02   1.438070E+02   1.438070E+02   1.399293E+02   1.399293E+02   1.399293E+02   1.399293E+02   1.399293E+02   7.404008E+01   7.404008E+01   7.404008E+01   7.404008E+01   7.404008E+01   4.574262E+01   4.574262E+01   4.574262E+01   4.574262E+01   4.574262E+01   4.574262E+01   4.574262E+01   2.730359E+01   2.730359E+01   2.730359E+01   2.730359E+01   2.730359E+01   2.730359E+01   2.730359E+01   2.730359E+01   2.730359E+01   2.730359E+01   1.172260E+01   1.172260E+01   1.172260E+01   1.172260E+01   1.172260E+01   1.172260E+01   1.172260E+01   1.172260E+01   1.172260E+01   1.025998E+01   1.025998E+01   1.025998E+01   1.025998E+01   1.025998E+01   1.025998E+01   1.025998E+01   1.777071E+01   1.777071E+01   1.777071E+01   1.777071E+01   1.777071E+01   1.059135E+01   1.059135E+01   1.059135E+01   1.059135E+01   2.359932E+01   2.359932E+01   2.359932E+01   2.387463E+01   2.387463E+01   2.999478E+01   2.999478E+01   1.188300E+01   1.188300E+01   2.456750E+01   3.250960E+01   1.058997E+02   1.058997E+02   5.531400E+01   5.949238E+01   3.345240E+01   1.849184E+01   3.209332E+01   8.996340E+01   7.316149E+01   8.729844E+01   3.752684E+01   1.505846E+01   1.269744E+01   3.217960E+01   2.507097E+01   5.022310E+01   5.127833E+01   1.771371E+01   3.898836E+01   6.187383E+01   2.636403E+01   1.126249E+02   1.114442E+02   8.827818E+01   1.189778E+02   2.184807E+02   9.646040E+01   6.295498E+01   3.506866E+01   2.688228E+01   1.213071E+01   8.815895E+00   2.530383E+01   8.703632E+01   4.241341E+01   6.832557E+01   4.135271E+01   3.242104E+01   3.073376E+01   1.044929E+01   8.981661E+00
   5.507941E+01   7.127811E+01   5.329417E+01   3.851521E+01   4.777983E+01   3.786067E+01   5.300594E+01   1.061540E+02   1.887898E+02   1.627883E+02   1.893156E+02   9.184406E+01   2.754194E+02   6.511397E+01   1.916138E+02   8.232812E+01   6.428758E+01   4.220572E+01   2.349706E+01   1.226708E+01   1.573581E+01   9.614120E+00   3.198899E+00   7.333907E+00   1.127870E+01   2.710641E+01   2.162877E+01   2.151433E+01   3.356617E+01   3.233818E+01   2.566270E+01   1.278839E+02   8.762128E+01   1.735696E+01   3.055035E+01   2.806404E+01   2.642418E+01   2.923154E+01   3.862498E+01   3.833401E+01   3.359827E+01   1.097735E+01   1.568862E+01   7.752027E+00   4.425769E+01   1.262880E+02   1.609119E+02   2.752485E+01   3.493411E+01   3.267782E+01   4.332589E+01   6.223561E+01   1.263221E+02   1.119258E+02   1.137814E+02   2.699443E+01   1.412399E+01   1.461772E+01   1.051723E+01   4.732970E+01   4.627861E+01   9.586004E+01   2.890392E+02   2.465849E+02   1.184628E+02   1.408775E+02   9.517694E+01   3.839406E+01   2.185060E+01   3.795007E+01   4.287603E+01   3.850076E+01   7.024064E+01   5.399589E+01   2.126079E+01   1.486581E+01   1.718498E+01   2.790560E+01   7.693117E+01   7.776131E+01   1.442481E+02   3.388505E+02   6.094568E+02   5.087042E+02   2.056633E+02   1.086578E+02   9.695197E+01   2.941958E+01   6.877321E+01   1.156848E+02   1.156848E+02   8.677263E+01   4.133629E+01   4.133629E+01   5.551904E+01   4.545680E+01   4.545680E+01   6.064378E+01   6.064378E+01   6.064378E+01   9.950639E+01   9.950639E+01   9.950639E+01   8.157143E+01   8.157143E+01   8.157143E+01   8.157143E+01   8.157143E+01   2.314716E+01   2.314716E+01   2.314716E+01   2.314716E+01   2.314716E+01   2.923659E+01   2.923659E+01   2.923659E+01   2.923659E+01   2.923659E+01   2.923659E+01   2.923659E+01   1.225650E+01   1.225650E+01   1.225650E+01   1.225650E+01   1.225650E+01   1.225650E+01   1.225650E+01   1.225650E+01   1.225650E+01   1.225650E+01   7.594787E+00   7.594787E+00   7.594787E+00   7.594787E+00   7.594787E+00   7.594787E+00   7.594787E+00   7.594787E+00   7.594787E+00   3.294236E+00   3.294236E+00   3.294236E+00   3.294236E+00   3.294236E+00   3.294236E+00   3.294236E+00   1.345430E+01   1.345430E+01   1.345430E+01   1.345430E+01   1.345430E+01   9.113601E+00   9.113601E+00   9.113601E+00   9.113601E+00   3.692853E+01   3.692853E+01   3.692853E+01   4.560022E+01   4.560022E+01   2.158537E+01   2.158537E+01   1.125987E+01   1.125987E+01   2.504721E+01   2.009043E+01   3.992647E+02   3.992647E+02   2.091545E+02   4.978713E+01   3.583621E+01   2.175010E+01   3.506704E+01   9.672934E+01   7.980521E+01   9.187889E+01   3.721415E+01   2.829188E+01   2.145327E+01   1.266095E+01   1.766309E+01   5.677467E+01   3.382840E+01   1.117381E+01   3.547221E+01   8.908140E+01   3.690768E+01   1.083774E+02   1.462647E+02   6.428984E+01   8.253590E+01   1.706095E+02   9.315131E+01   3.476650E+01   1.882853E+01   1.314466E+01   1.665081E+01   1.022169E+01   2.793497E+01   8.085415E+01   4.521424E+01   1.346117E+02   3.741726E+01   4.431542E+01   2.157723E+01   1.966726E+01   8.337996E+00
   3.191838E+01   5.480759E+01   3.106768E+01   3.856702E+01   1.952827E+01   4.415565E+01   3.388462E+01   1.060099E+02   1.616866E+02   3.284816E+02   3.013905E+02   1.367459E+02   2.711708E+02   8.845638E+01   9.687295E+01   1.338879E+02   3.826270E+01   1.163729E+01   1.295084E+01   1.311019E+01   1.056762E+01   7.881670E+00   5.684155E+00   1.291205E+01   2.840206E+01   2.019536E+01   2.179853E+01   2.098048E+01   3.658457E+01   3.631232E+01   3.693861E+01   1.206806E+02   1.272216E+02   1.588382E+01   2.083976E+01   1.528374E+01   2.506572E+01   8.569830E+01   5.793375E+01   3.388878E+01   3.365399E+01   1.481307E+01   8.462913E+00   7.955750E+00   3.862747E+01   1.071542E+02   1.953349E+02   3.981633E+01   4.531839E+01   3.979507E+01   4.012551E+01   6.021159E+01   1.017950E+02   1.483441E+02   9.520619E+01   2.027446E+01   8.909945E+00   9.332707E+00   1.363393E+01   2.040530E+01   4.101117E+01   1.455251E+02   3.811663E+02   2.554131E+02   2.203089E+02   1.371563E+02   8.204189E+01   5.537321E+01   2.609298E+01   7.431435E+01   5.500818E+01   4.144872E+01   8.068889E+01   3.234966E+01   1.792874E+01   1.898819E+01   1.466324E+01   2.374376E+01   5.124135E+01   1.316174E+02   1.148836E+02   3.608264E+02   7.798215E+02   7.584885E+02   1.325267E+02   2.054693E+02   9.257569E+01   1.456657E+01   5.308416E+01   1.196519E+02   1.196519E+02   4.965683E+01   2.034666E+01   2.034666E+01   9.986234E+01   6.179660E+01   6.179660E+01   3.857864E+01   3.857864E+01   3.857864E+01   7.222385E+01   7.222385E+01   7.222385E+01   8.659725E+01   8.659725E+01   8.659725E+01   8.659725E+01   8.659725E+01   2.582058E+01   2.582058E+01   2.582058E+01   2.582058E+01   2.582058E+01   3.587342E+01   3.587342E+01   3.587342E+01   3.587342E+01   3.587342E+01   3.587342E+01   3.587342E+01   2.428214E+01   2.428214E+01   2.428214E+01   2.428214E+01   2.428214E+01   2.428214E+01   2.428214E+01   2.428214E+01   2.428214E+01   2.428214E+01   1.133824E+01   1.133824E+01   1.133824E+01   1.133824E+01   1.133824E+01   1.133824E+01   1.133824E+01   1.133824E+01   1.133824E+01   8.143539E+00   8.143539E+00   8.143539E+00   8.143539E+00   8.143539E+00   8.143539E+00   8.143539E+00   8.263155E+00   8.263155E+00   8.263155E+00   8.263155E+00   8.263155E+00   9.141140E+00   9.141140E+00   9.141140E+00   9.141140E+00   3.683498E+01   3.683498E+01   3.683498E+01   2.756842E+01   2.756842E+01   3.413613E+01   3.413613E+01   1.815219E+01   1.815219E+01   2.733681E+01   4.976931E+01   3.300398E+02   3.300398E+02   1.696219E+02   5.262108E+01   4.419411E+01   3.522464E+01   3.438056E+01   1.427856E+02   7.982099E+01   1.136404E+02   3.796943E+01   3.149936E+01   3.607331E+01   1.931096E+01   1.644561E+01   2.345917E+01   2.409295E+01   1.010144E+01   2.583764E+01   3.919741E+01   4.033843E+01   4.532890E+01   3.941501E+01   6.972766E+01   5.255497E+01   1.004681E+02   9.204704E+01   1.447635E+01   2.946802E+01   4.261535E+00   1.954488E+01   1.157248E+01   7.453912E+00   3.612027E+01   6.816219E+01   5.902997E+01   7.145300E+01   5.070351E+01   1.186885E+01   8.561160E+00   9.052979E+00
   4.228039E+01   4.616446E+01   2.802600E+01   2.183951E+01   2.454449E+01   1.958516E+01   2.198402E+01   8.958614E+01   1.659211E+02   1.534250E+02   1.241945E+02   1.866769E+02   2.448735E+02   9.632411E+01   7.259364E+01   7.572420E+01   3.504956E+01   2.195327E+01   6.545622E+00   8.544339E+00   5.138684E+00   7.380378E+00   6.653148E+00   1.292784E+01   2.680127E+01   2.021985E+01   1.720701E+01   3.872432E+01   3.836618E+01   1.032201E+02   4.036876E+01   8.277686E+01   1.431767E+02   2.230085E+01   2.095713E+01   2.095701E+01   3.374607E+01   4.452855E+01   1.006282E+02   2.939816E+01   1.237055E+01   8.016838E+00   1.455143E+01   8.289367E+00   2.898545E+01   6.008705E+01   8.062253E+01   2.619382E+01   3.096428E+01   5.894876E+01   4.420620E+01   7.763326E+01   8.802081E+01   1.755402E+02   5.413845E+01   6.892511E+00   5.545504E+00   7.480727E+00   5.796660E+00   1.350576E+01   5.030726E+01   1.118472E+02   2.720533E+02   2.534562E+02   2.915666E+02   1.536570E+02   9.255621E+01   3.983493E+01   3.386567E+01   5.243819E+01   6.282727E+01   5.210011E+01   7.133550E+01   4.953424E+01   9.678983E+00   1.447279E+01   1.547466E+01   1.733754E+01   4.379525E+01   4.441291E+01   1.253064E+02   2.705629E+02   3.544077E+02   3.580998E+02   1.430689E+02   4.982594E+01   6.454555E+01   1.381892E+01   2.503016E+01   4.612025E+01   4.612025E+01   6.429729E+01   2.070355E+01   2.070355E+01   4.285476E+01   2.745954E+01   2.745954E+01   1.657860E+01   1.657860E+01   1.657860E+01   6.662189E+01   6.662189E+01   6.662189E+01   1.047806E+02   1.047806E+02   1.047806E+02   1.047806E+02   1.047806E+02   6.383655E+01   6.383655E+01   6.383655E+01   6.383655E+01   6.383655E+01   1.589348E+01   1.589348E+01   1.589348E+01   1.589348E+01   1.589348E+01   1.589348E+01   1.589348E+01   7.022520E+00   7.022520E+00   7.022520E+00   7.022520E+00   7.022520E+00   7.022520E+00   7.022520E+00   7.022520E+00   7.022520E+00   7.022520E+00   1.313548E+01   1.313548E+01   1.313548E+01   1.313548E+01   1.313548E+01   1.313548E+01   1.313548E+01   1.313548E+01   1.313548E+01   9.072715E+00   9.072715E+00   9.072715E+00   9.072715E+00   9.072715E+00   9.072715E+00   9.072715E+00   4.740598E+00   4.740598E+00   4.740598E+00   4.740598E+00   4.740598E+00   9.656275E+00   9.656275E+00   9.656275E+00   9.656275E+00   3.265355E+01   3.265355E+01   3.265355E+01   2.634361E+01   2.634361E+01   3.291333E+01   3.291333E+01   3.543189E+01   3.543189E+01   3.579058E+01   9.486794E+01   1.409274E+02   1.409274E+02   2.170544E+02   7.267156E+01   5.536443E+01   3.849730E+01   2.994448E+01   6.294540E+01   8.105523E+01   5.154848E+01   9.683308E+01   4.636716E+01   3.881915E+01   3.888396E+01   1.202534E+01   2.358383E+01   2.606363E+01   3.080444E+01   1.795572E+01   1.940359E+01   4.181919E+01   6.801207E+01   6.989854E+01   3.458129E+01   3.284514E+01   1.189889E+02   7.487814E+01   2.807102E+01   1.634963E+01   6.826880E+00   1.277861E+01   7.697569E+00   9.435448E+00   1.017940E+01   3.255225E+01   5.666643E+01   5.729726E+01   4.931161E+01   1.451690E+01   9.061211E+00   4.327930E+00
   4.862610E+01   4.549576E+01   1.384429E+01   3.102360E+01   1.989064E+01   9.842720E+00   2.090491E+01   7.123330E+01   8.714552E+01   1.841839E+02   1.697157E+02   1.865581E+02   8.909221E+01   4.043904E+01   3.691678E+01   7.180032E+01   2.987453E+01   1.487135E+01   5.730684E+00   8.363820E+00   8.204747E+00   1.292609E+01   1.357515E+01   2.160562E+01   3.890654E+01   4.278873E+01   2.205574E+01   4.246566E+01   2.867146E+01   8.730127E+01   3.931195E+01   4.724484E+01   1.026123E+02   3.074207E+01   1.638080E+01   3.989407E+01   3.740972E+01   7.783102E+01   4.390986E+01   3.750622E+01   1.295898E+01   7.748915E+00   8.572620E+00   1.180771E+01   3.294284E+01   3.662681E+01   5.373169E+01   6.415633E+01   4.123499E+01   4.459230E+01   5.514429E+01   1.064091E+02   1.738190E+02   1.003752E+02   8.677680E+01   1.483792E+01   7.478253E+00   6.683750E+00   6.412109E+00   2.440468E+01   1.086472E+02   6.074498E+01   2.759755E+02   1.668294E+02   2.093870E+02   4.978725E+01   9.480478E+01   3.659459E+01   3.147659E+01   5.234869E+01   1.174825E+02   7.425034E+01   1.072773E+02   2.443802E+01   1.750750E+01   1.427721E+01   1.605598E+01   2.296868E+01   4.035521E+01   5.846953E+01   8.128748E+01   1.479323E+02   3.085259E+02   1.998060E+02   9.555194E+01   4.219667E+01   3.348612E+01   1.209281E+01   3.949295E+01   2.688372E+01   2.688372E+01   7.081310E+01   4.511209E+01   4.511209E+01   2.726501E+01   2.616703E+01   2.616703E+01   2.717419E+01   2.717419E+01   2.717419E+01   5.331459E+01   5.331459E+01   5.331459E+01   1.024525E+02   1.024525E+02   1.024525E+02   1.024525E+02   1.024525E+02   7.530992E+01   7.530992E+01   7.530992E+01   7.530992E+01   7.530992E+01   1.370796E+01   1.370796E+01   1.370796E+01   1.370796E+01   1.370796E+01   1.370796E+01   1.370796E+01   6.977416E+00   6.977416E+00   6.977416E+00   6.977416E+00   6.977416E+00   6.977416E+00   6.977416E+00   6.977416E+00   6.977416E+00   6.977416E+00   8.621411E+00   8.621411E+00   8.621411E+00   8.621411E+00   8.621411E+00   8.621411E+00   8.621411E+00   8.621411E+00   8.621411E+00   1.396132E+01   1.396132E+01   1.396132E+01   1.396132E+01   1.396132E+01   1.396132E+01   1.396132E+01   5.451632E+00   5.451632E+00   5.451632E+00   5.451632E+00   5.451632E+00   6.665446E+00   6.665446E+00   6.665446E+00   6.665446E+00   1.713172E+01   1.713172E+01   1.713172E+01   6.422403E+01   6.422403E+01   3.929678E+01   3.929678E+01   3.772717E+01   3.772717E+01   3.732240E+01   6.422507E+01   1.569479E+02   1.569479E+02   1.243932E+02   7.956826E+01   1.112406E+02   6.549153E+01   3.581223E+01   6.953768E+01   7.804977E+01   6.092599E+01   5.172615E+01   5.906699E+01   3.168263E+01   4.101800E+01   1.027217E+01   7.251286E+01   3.888420E+01   4.783635E+01   2.395371E+01   1.601542E+01   3.454221E+01   3.531596E+01   8.035627E+01   2.349954E+01   2.682377E+01   8.536239E+01   3.624702E+01   2.888113E+01   1.562261E+01   1.465761E+01   1.013740E+01   3.930790E+00   6.184504E+00   7.964989E+00   2.482579E+01   4.494418E+01   3.645276E+01   1.059255E+02   1.180789E+01   9.786105E+00   5.151175E+00
   4.585750E+01   4.460461E+01   7.542304E+00   3.055787E+01   1.680698E+01   1.216031E+01   3.630452E+01   5.779179E+01   7.447086E+01   1.055814E+02   2.553828E+02   2.117220E+02   9.785445E+01   1.138013E+02   4.718809E+01   3.661387E+01   3.626939E+01   1.612494E+01   5.791819E+00   3.595375E+00   7.462727E+00   1.476113E+01   2.365626E+01   4.535443E+01   6.417223E+01   3.457343E+01   2.744460E+01   2.923104E+01   5.908413E+01   3.105545E+01   7.244527E+01   3.495299E+01   1.285123E+02   6.637420E+01   4.120502E+01   9.842999E+01   7.323924E+01   9.383211E+01   3.694883E+01   2.668228E+01   9.756504E+00   5.011799E+00   3.495785E+00   1.048872E+01   3.994468E+01   3.671152E+01   3.914097E+01   4.595546E+01   4.939318E+01   4.430626E+01   4.712202E+01   7.450924E+01   9.269799E+01   9.488613E+01   4.745787E+01   1.274422E+01   6.743887E+00   1.644750E+00   8.444036E+00   5.778069E+01   4.085107E+01   2.322349E+01   1.806906E+02   5.423054E+01   8.281493E+01   2.055633E+01   3.804566E+01   1.613791E+01   4.946267E+01   1.132559E+02   9.538588E+01   3.863281E+01   3.869875E+01   2.352293E+01   1.518920E+01   1.182289E+01   9.993614E+00   2.449414E+01   5.408541E+01   4.994368E+01   7.586143E+01   9.823386E+01   1.832030E+02   1.090123E+02   4.537888E+01   5.972918E+01   4.672171E+01   1.336909E+01   2.847239E+01   4.361446E+01   4.361446E+01   4.808600E+01   8.765087E+01   8.765087E+01   3.243589E+01   1.709206E+01   1.709206E+01   2.962096E+01   2.962096E+01   2.962096E+01   4.395064E+01   4.395064E+01   4.395064E+01   4.215938E+01   4.215938E+01   4.215938E+01   4.215938E+01   4.215938E+01   2.329075E+02   2.329075E+02   2.329075E+02   2.329075E+02   2.329075E+02   2.482493E+01   2.482493E+01   2.482493E+01   2.482493E+01   2.482493E+01   2.482493E+01   2.482493E+01   8.866603E+00   8.866603E+00   8.866603E+00   8.866603E+00   8.866603E+00   8.866603E+00   8.866603E+00   8.866603E+00   8.866603E+00   8.866603E+00   7.906024E+00   7.906024E+00   7.906024E+00   7.906024E+00   7.906024E+00   7.906024E+00   7.906024E+00   7.906024E+00   7.906024E+00   6.087194E+00   6.087194E+00   6.087194E+00   6.087194E+00   6.087194E+00   6.087194E+00   6.087194E+00   6.216269E+00   6.216269E+00   6.216269E+00   6.216269E+00   6.216269E+00   1.960192E+01   1.960192E+01   1.960192E+01   1.960192E+01   2.206057E+01   2.206057E+01   2.206057E+01   6.226836E+01   6.226836E+01   2.835580E+01   2.835580E+01   3.828165E+01   3.828165E+01   2.290831E+01   4.442667E+01   1.550394E+02   1.550394E+02   1.086443E+02   9.231892E+01   1.256017E+02   3.676606E+01   6.483846E+01   7.717632E+01   4.350604E+01   5.528519E+01   4.538637E+01   1.655722E+02   6.935291E+01   1.541580E+02   1.444871E+01   1.071905E+02   6.559325E+01   3.661646E+01   2.763137E+01   2.343069E+01   2.076058E+01   2.733370E+01   5.640924E+01   2.592065E+01   4.761866E+01   6.565060E+01   5.103584E+01   2.424887E+01   1.342204E+01   1.111759E+01   2.072062E+01   1.607154E+01   9.869020E+00   1.788423E+01   2.923777E+01   6.890050E+01   5.423547E+01   5.047003E+01   2.748208E+01   1.304234E+01   4.648633E+00