# LPF package for  MODFLOW-2005, generated by Flopy.
        53    -1E+30         0  
         1
         0
   0.000000E+00
         0
         0
INTERNAL               1 (207E15.6) -1 #hk layer 1                    
   6.227498E+01   2.046874E+01   2.780299E+01   6.135768E+01   4.902031E+01   8.045652E+01   7.607068E+01   2.951420E+01   1.255443E+02   4.108071E+01   6.206189E+01   1.519301E+02   2.813698E+02   9.315559E+01   1.776209E+02   4.986724E+02   3.713113E+01   2.657730E+01   8.138732E+01   3.204175E+01   5.464469E+01   6.006131E+01   8.417362E+01   7.292201E+01   1.876286E+01   4.308586E+01   1.096538E+02   8.241137E+01   8.236422E+01   2.852178E+01   3.935210E+01   5.270348E+01   7.199090E+01   1.208489E+02   8.593051E+01   1.509350E+02   5.506043E+01   5.332068E+01   7.231906E+01   8.601407E+01   2.409471E+02   1.182534E+02   6.059406E+01   6.870398E+01   2.388595E+01   7.015898E+01   1.851294E+01   6.390922E+01   8.372456E+01   5.660306E+01   1.958002E+02   2.926683E+02   4.254146E+01   8.919983E+01   4.057883E+01   3.391508E+01   5.273711E+01   6.372406E+01   5.627130E+01   2.624342E+01   2.483089E+01   6.933009E+01   1.547830E+02   2.247291E+02   1.204151E+02   1.070354E+02   1.232529E+02   2.499419E+01   2.383063E+01   3.387646E+01   7.330120E+01   3.546457E+02   5.626783E+02   4.112913E+02   2.819394E+02   3.056103E+02   4.862477E+01   1.025090E+02   1.213371E+02   2.538840E+02   3.658887E+02   1.446563E+02   1.742970E+02   1.474576E+02   7.908157E+01   1.816048E+02   2.203730E+02   3.747224E+02   1.413039E+02   8.564088E+01   8.564088E+01   2.014142E+02   4.852364E+01   4.852364E+01   1.326446E+01   1.735593E+01   1.735593E+01   8.742451E+01   8.742451E+01   8.742451E+01   4.928703E+01   4.928703E+01   4.928703E+01   1.735699E+01   1.735699E+01   1.735699E+01   1.735699E+01   1.735699E+01   9.597514E+00   9.597514E+00   9.597514E+00   9.597514E+00   9.597514E+00   1.357222E+01   1.357222E+01   1.357222E+01   1.357222E+01   1.357222E+01   1.357222E+01   1.357222E+01   2.185177E+01   2.185177E+01   2.185177E+01   2.185177E+01   2.185177E+01   2.185177E+01   2.185177E+01   2.185177E+01   2.185177E+01   2.185177E+01   4.088145E+01   4.088145E+01   4.088145E+01   4.088145E+01   4.088145E+01   4.088145E+01   4.088145E+01   4.088145E+01   4.088145E+01   5.268161E+01   5.268161E+01   5.268161E+01   5.268161E+01   5.268161E+01   5.268161E+01   5.268161E+01   2.987758E+01   2.987758E+01   2.987758E+01   2.987758E+01   2.987758E+01   4.023358E+01   4.023358E+01   4.023358E+01   4.023358E+01   1.976088E+01   1.976088E+01   1.976088E+01   2.480104E+01   2.480104E+01   1.330136E+02   1.330136E+02   2.453530E+01   2.453530E+01   5.028204E+01   4.344522E+01   6.580460E+01   6.580460E+01   5.953308E+01   8.124266E+01   1.439753E+02   6.278188E+01   1.444328E+02   2.453943E+02   1.219549E+02   1.886312E+02   1.220520E+02   8.067877E+01   5.255201E+01   3.931782E+01   1.056896E+02   1.089703E+02   9.565041E+01   1.291908E+01   6.539901E+00   1.019196E+01   2.441023E+01   3.282243E+01   1.979689E+02   3.254486E+02   1.582963E+02   2.478760E+02   6.228036E+02   2.785074E+02   1.159772E+02   2.802120E+01   8.154542E+01   2.808023E+01   6.998338E+01   3.080691E+01   6.878770E+01   7.475797E+01   9.342971E+01   9.144272E+01   1.453882E+01   4.114761E+01   7.144173E+01
   4.535697E+01   2.610093E+01   4.893266E+01   8.075381E+01   3.481765E+01   9.016079E+01   5.025336E+01   6.077625E+01   4.479826E+01   4.267509E+01   5.769122E+01   1.820255E+02   1.273768E+02   9.204272E+01   1.794858E+02   1.437714E+02   5.009561E+01   4.659456E+01   1.298181E+02   1.928894E+01   4.771913E+01   5.057422E+01   8.265060E+01   4.757782E+01   1.864112E+01   6.564454E+01   1.211367E+02   7.098727E+01   1.383265E+02   9.005685E+01   3.784243E+01   4.887472E+01   4.093386E+01   8.057101E+01   7.961851E+01   1.138325E+02   7.321111E+01   5.429659E+01   1.320400E+02   1.274414E+02   1.254322E+02   1.845466E+02   8.617246E+01   1.223600E+02   4.516165E+01   2.546044E+01   2.822492E+01   4.831760E+01   6.740100E+01   1.153326E+02   1.870076E+02   2.461356E+02   4.665599E+01   5.441365E+01   3.937969E+01   1.695595E+01   4.111591E+01   1.434665E+02   1.482508E+01   2.518638E+01   3.500287E+01   9.259628E+01   1.729266E+02   2.696675E+02   1.881365E+02   7.683801E+01   8.192958E+01   1.811925E+01   2.257058E+01   4.665832E+01   6.965736E+01   1.649673E+02   1.786915E+02   3.098822E+02   2.690126E+02   2.818524E+02   6.466467E+01   7.816903E+01   7.138015E+02   5.135043E+02   4.263105E+02   2.249993E+02   1.552679E+02   9.641177E+01   7.134205E+01   1.507936E+02   2.515257E+02   4.860710E+02   1.546189E+02   6.742276E+01   6.742276E+01   9.274139E+01   7.065184E+01   7.065184E+01   2.748937E+01   2.270401E+01   2.270401E+01   1.144268E+02   1.144268E+02   1.144268E+02   4.952062E+01   4.952062E+01   4.952062E+01   3.536399E+01   3.536399E+01   3.536399E+01   3.536399E+01   3.536399E+01   3.937630E+01   3.937630E+01   3.937630E+01   3.937630E+01   3.937630E+01   2.731037E+01   2.731037E+01   2.731037E+01   2.731037E+01   2.731037E+01   2.731037E+01   2.731037E+01   2.563142E+01   2.563142E+01   2.563142E+01   2.563142E+01   2.563142E+01   2.563142E+01   2.563142E+01   2.563142E+01   2.563142E+01   2.563142E+01   4.487376E+01   4.487376E+01   4.487376E+01   4.487376E+01   4.487376E+01   4.487376E+01   4.487376E+01   4.487376E+01   4.487376E+01   4.221833E+01   4.221833E+01   4.221833E+01   4.221833E+01   4.221833E+01   4.221833E+01   4.221833E+01   4.726177E+01   4.726177E+01   4.726177E+01   4.726177E+01   4.726177E+01   2.364978E+01   2.364978E+01   2.364978E+01   2.364978E+01   8.247108E+00   8.247108E+00   8.247108E+00   2.434845E+01   2.434845E+01   8.194508E+01   8.194508E+01   5.921249E+01   5.921249E+01   5.304690E+01   5.479467E+01   4.265942E+01   4.265942E+01   6.517019E+01   9.312312E+01   7.446675E+01   1.058954E+02   1.328089E+02   9.477148E+01   1.676503E+02   9.652340E+01   1.246985E+02   6.010032E+01   2.774618E+01   2.532553E+01   4.786868E+01   7.770953E+01   8.604729E+01   3.103392E+01   1.303808E+01   1.616826E+01   3.016327E+01   7.830592E+01   1.809953E+02   2.591430E+02   7.745611E+01   1.109591E+02   1.930140E+02   1.750616E+02   1.277736E+02   2.154541E+02   1.490265E+02   8.876006E+01   7.078302E+01   3.461452E+01   6.220945E+01   6.223392E+01   9.932322E+01   4.933750E+01   4.920981E+01   1.162637E+02   1.116361E+02
   9.106303E+01   5.823503E+01   1.623546E+01   4.812924E+01   4.344597E+01   1.642778E+02   5.957222E+01   2.610618E+01   3.140780E+01   6.960391E+01   9.351395E+01   6.829624E+01   1.483020E+02   1.121727E+02   9.970316E+01   4.361147E+01   5.409757E+01   4.696078E+01   7.538754E+01   4.286481E+01   4.344622E+01   4.024786E+01   9.452760E+01   4.922863E+01   1.383260E+01   4.234051E+01   1.390203E+02   2.298325E+02   1.970509E+02   5.630986E+01   1.857664E+01   3.412044E+01   8.434705E+01   1.316659E+02   1.966364E+02   1.378999E+02   1.019847E+02   9.628671E+01   7.385221E+01   1.420903E+02   1.187530E+02   3.640157E+02   1.598600E+02   1.113744E+02   5.194311E+01   7.997659E+01   4.639739E+01   1.322712E+02   1.247936E+02   9.122802E+01   1.864927E+02   1.611669E+02   3.142954E+01   4.935949E+01   5.610134E+01   2.653405E+01   5.070645E+01   9.826131E+01   2.163866E+01   3.138340E+01   3.669027E+01   8.320230E+01   3.341755E+02   6.093010E+02   3.871186E+02   1.805429E+02   6.853934E+01   1.337504E+01   4.297604E+01   2.570556E+01   1.087084E+02   6.837061E+01   2.471598E+02   1.743541E+02   3.432841E+02   3.564915E+02   1.395277E+02   1.258780E+02   3.342282E+02   3.923897E+02   7.441799E+02   3.282729E+02   8.687062E+01   6.481564E+01   7.716581E+01   1.288750E+02   2.704864E+02   4.169566E+02   3.120166E+02   1.555934E+02   1.555934E+02   1.401107E+02   9.293162E+01   9.293162E+01   1.920742E+01   2.193777E+01   2.193777E+01   1.634280E+02   1.634280E+02   1.634280E+02   6.477892E+01   6.477892E+01   6.477892E+01   7.168677E+01   7.168677E+01   7.168677E+01   7.168677E+01   7.168677E+01   8.681290E+01   8.681290E+01   8.681290E+01   8.681290E+01   8.681290E+01   5.787916E+01   5.787916E+01   5.787916E+01   5.787916E+01   5.787916E+01   5.787916E+01   5.787916E+01   4.940560E+01   4.940560E+01   4.940560E+01   4.940560E+01   4.940560E+01   4.940560E+01   4.940560E+01   4.940560E+01   4.940560E+01   4.940560E+01   3.803981E+01   3.803981E+01   3.803981E+01   3.803981E+01   3.803981E+01   3.803981E+01   3.803981E+01   3.803981E+01   3.803981E+01   8.644158E+01   8.644158E+01   8.644158E+01   8.644158E+01   8.644158E+01   8.644158E+01   8.644158E+01   5.438023E+01   5.438023E+01   5.438023E+01   5.438023E+01   5.438023E+01   9.157062E+00   9.157062E+00   9.157062E+00   9.157062E+00   1.239803E+01   1.239803E+01   1.239803E+01   1.303546E+01   1.303546E+01   2.315280E+01   2.315280E+01   6.300770E+01   6.300770E+01   3.955901E+01   1.110484E+02   7.485757E+01   7.485757E+01   1.001583E+02   1.096006E+02   6.698943E+01   1.927074E+02   1.434294E+02   1.057114E+02   2.840619E+02   1.259091E+02   1.397547E+02   3.267232E+01   3.574545E+01   6.394980E+01   7.148485E+01   5.776188E+01   1.357406E+02   4.107368E+01   2.811030E+01   3.559547E+01   6.937926E+01   6.494090E+01   1.240316E+02   1.667032E+02   6.347437E+01   1.837472E+02   1.213777E+02   2.408012E+02   2.359520E+02   4.266830E+02   2.127156E+02   1.673832E+02   1.706382E+02   1.633798E+02   8.200555E+01   3.764295E+01   7.817841E+01   5.094702E+01   9.043492E+01   2.001822E+02   1.489214E+02
   1.530417E+02   1.035441E+02   1.838496E+01   5.819272E+01   5.642355E+01   9.396157E+01   3.167941E+01   2.743598E+01   9.220915E+00   5.972673E+01   8.943024E+01   3.971367E+01   1.216726E+02   4.846084E+01   1.003929E+02   5.436158E+01   5.019149E+01   3.173643E+01   5.567783E+01   2.659802E+01   5.572505E+01   2.078324E+01   3.110696E+01   2.538470E+01   1.575890E+01   5.451162E+01   1.171293E+02   1.246797E+02   2.714213E+02   4.488195E+01   2.240598E+01   4.685145E+01   1.028445E+02   1.350999E+02   1.161534E+02   1.418762E+02   2.442263E+02   1.773028E+02   8.579646E+01   1.192046E+02   1.413890E+02   2.565717E+02   1.498189E+02   2.156047E+02   8.135751E+01   1.084993E+02   4.603533E+01   1.226413E+02   2.749028E+02   1.367713E+02   8.324232E+01   8.686139E+01   5.460508E+01   1.234643E+02   6.731831E+01   2.850050E+01   1.135946E+02   6.935361E+01   2.157419E+01   2.343300E+01   6.884159E+01   1.072628E+02   2.019010E+02   3.867310E+02   3.410715E+02   1.614797E+02   5.169766E+01   1.498070E+01   4.219128E+01   2.772890E+01   6.494321E+01   1.017748E+02   1.322246E+02   1.556153E+02   5.726332E+02   5.678960E+02   1.911403E+02   2.063037E+02   1.122443E+03   3.390279E+02   5.258721E+02   3.185623E+02   1.146051E+02   9.249977E+01   9.358183E+01   5.980408E+01   1.548283E+02   4.345938E+02   4.377990E+02   1.812084E+02   1.812084E+02   2.001303E+02   5.304118E+01   5.304118E+01   3.179469E+01   3.655603E+01   3.655603E+01   1.406155E+02   1.406155E+02   1.406155E+02   9.497791E+01   9.497791E+01   9.497791E+01   2.045206E+02   2.045206E+02   2.045206E+02   2.045206E+02   2.045206E+02   8.973548E+01   8.973548E+01   8.973548E+01   8.973548E+01   8.973548E+01   5.172623E+01   5.172623E+01   5.172623E+01   5.172623E+01   5.172623E+01   5.172623E+01   5.172623E+01   1.210181E+02   1.210181E+02   1.210181E+02   1.210181E+02   1.210181E+02   1.210181E+02   1.210181E+02   1.210181E+02   1.210181E+02   1.210181E+02   8.101526E+01   8.101526E+01   8.101526E+01   8.101526E+01   8.101526E+01   8.101526E+01   8.101526E+01   8.101526E+01   8.101526E+01   9.694071E+01   9.694071E+01   9.694071E+01   9.694071E+01   9.694071E+01   9.694071E+01   9.694071E+01   2.470369E+01   2.470369E+01   2.470369E+01   2.470369E+01   2.470369E+01   9.704842E+00   9.704842E+00   9.704842E+00   9.704842E+00   1.630217E+01   1.630217E+01   1.630217E+01   1.427018E+01   1.427018E+01   1.878159E+01   1.878159E+01   4.038462E+01   4.038462E+01   2.924930E+01   1.240655E+02   9.144402E+01   9.144402E+01   2.836849E+02   2.374146E+02   1.055521E+02   1.997214E+02   1.179878E+02   7.227398E+01   1.146660E+02   9.288145E+01   1.697726E+02   4.385335E+01   7.967699E+01   1.105111E+02   7.676382E+01   1.485889E+02   1.043144E+02   8.778696E+01   4.094942E+01   7.055135E+01   6.399382E+01   9.270742E+01   1.289994E+02   1.128724E+02   7.981816E+01   1.228149E+02   4.393622E+02   3.006333E+02   3.302660E+02   3.967779E+02   1.651806E+02   1.438103E+02   2.396903E+02   2.223284E+02   2.436147E+02   8.303934E+01   6.682262E+01   8.757803E+01   3.293131E+01   1.240472E+02   7.245467E+01
   5.270930E+01   7.080418E+01   2.861684E+01   9.566257E+01   3.906863E+01   4.582386E+01   3.765720E+01   3.641155E+01   1.208472E+01   4.384522E+01   9.373789E+01   5.994371E+01   6.169204E+01   5.831512E+01   8.883665E+01   5.756175E+01   5.792751E+01   3.398878E+01   6.437115E+01   3.544948E+01   7.357118E+01   2.045721E+01   1.776396E+01   3.423519E+01   9.464043E+00   2.522608E+01   5.098304E+01   6.051439E+01   2.831433E+02   7.942994E+01   2.113341E+01   4.406691E+01   9.161952E+01   7.375599E+01   1.596009E+02   3.042764E+02   2.575294E+02   1.085390E+02   1.027626E+02   7.989194E+01   1.543806E+02   2.315082E+02   1.253494E+02   2.901013E+02   7.295898E+01   1.308942E+02   4.809226E+01   1.391523E+02   2.913977E+02   1.530293E+02   5.775145E+01   3.655605E+01   1.691997E+02   2.226295E+02   1.100165E+02   5.583069E+01   1.903669E+02   1.118726E+02   2.418882E+01   4.457514E+01   7.256289E+01   6.073064E+02   3.515179E+02   1.874654E+02   2.172440E+02   1.441795E+02   5.251877E+01   2.237429E+01   2.335673E+01   1.365968E+01   5.657212E+01   1.748167E+02   6.258232E+01   1.496868E+02   2.519858E+02   3.210632E+02   2.977704E+02   4.242127E+02   8.671724E+02   3.393293E+02   6.022012E+02   4.086933E+02   1.114109E+02   1.132942E+02   7.747656E+01   1.524724E+02   1.626956E+02   2.183166E+02   5.057517E+02   2.408272E+02   2.408272E+02   2.058524E+02   6.469389E+01   6.469389E+01   6.112131E+01   6.680857E+01   6.680857E+01   1.064697E+02   1.064697E+02   1.064697E+02   6.554620E+01   6.554620E+01   6.554620E+01   2.244520E+02   2.244520E+02   2.244520E+02   2.244520E+02   2.244520E+02   1.965687E+02   1.965687E+02   1.965687E+02   1.965687E+02   1.965687E+02   1.272222E+02   1.272222E+02   1.272222E+02   1.272222E+02   1.272222E+02   1.272222E+02   1.272222E+02   4.492495E+02   4.492495E+02   4.492495E+02   4.492495E+02   4.492495E+02   4.492495E+02   4.492495E+02   4.492495E+02   4.492495E+02   4.492495E+02   1.776962E+02   1.776962E+02   1.776962E+02   1.776962E+02   1.776962E+02   1.776962E+02   1.776962E+02   1.776962E+02   1.776962E+02   2.003420E+02   2.003420E+02   2.003420E+02   2.003420E+02   2.003420E+02   2.003420E+02   2.003420E+02   2.550039E+01   2.550039E+01   2.550039E+01   2.550039E+01   2.550039E+01   1.426903E+01   1.426903E+01   1.426903E+01   1.426903E+01   2.320987E+01   2.320987E+01   2.320987E+01   2.072447E+01   2.072447E+01   4.755165E+01   4.755165E+01   5.439372E+01   5.439372E+01   1.851829E+01   6.724675E+01   1.706641E+02   1.706641E+02   3.266624E+02   2.805529E+02   7.683098E+01   3.014750E+02   1.886884E+02   1.792385E+02   4.472520E+02   8.874262E+01   6.845496E+01   1.567602E+02   9.842728E+01   6.568128E+01   1.498975E+02   2.680658E+02   5.951387E+02   1.615201E+02   6.949709E+01   1.767103E+02   6.174537E+01   8.335258E+01   1.561733E+02   1.685890E+02   1.654129E+02   4.479229E+02   7.755381E+02   4.628794E+02   1.634718E+02   1.359941E+02   1.240047E+02   5.249827E+02   4.836156E+02   3.942706E+02   2.279180E+02   1.216718E+02   1.364094E+02   8.168847E+01   2.221069E+01   4.359185E+01   9.553359E+01
   4.909773E+01   4.108075E+01   2.622137E+01   1.168602E+02   7.281207E+01   4.449527E+01   2.261392E+01   3.964647E+01   1.955408E+01   2.220772E+01   4.013970E+01   4.842969E+01   5.742296E+01   1.089936E+02   1.104421E+02   4.470017E+01   4.134795E+01   7.413137E+01   1.268296E+02   5.227540E+01   5.889011E+01   5.139027E+01   2.158700E+01   2.506880E+01   1.480781E+01   1.735728E+01   3.471674E+01   5.539997E+01   2.004320E+02   1.331311E+02   3.832025E+01   8.224947E+01   1.155272E+02   7.048185E+01   2.976990E+02   4.255871E+02   2.602695E+02   1.853178E+02   1.560122E+02   8.881449E+01   2.046024E+02   1.073121E+02   1.364944E+02   2.973246E+02   8.328917E+01   1.468003E+02   8.065613E+01   9.803308E+01   2.521897E+02   1.391817E+02   5.804582E+01   7.027291E+01   2.087467E+02   1.611414E+02   1.467283E+02   9.359248E+01   6.231332E+01   8.174269E+01   3.588367E+01   2.812800E+01   2.431256E+02   8.730670E+02   3.527130E+02   1.455761E+02   2.054488E+02   1.203355E+02   6.001649E+01   5.444729E+01   3.554310E+01   4.176725E+01   7.438371E+01   1.113299E+02   1.024678E+02   1.543018E+02   2.759580E+02   2.015809E+02   3.376764E+02   8.665873E+02   3.866529E+02   2.715595E+02   2.234213E+02   1.418525E+02   1.342502E+02   1.187174E+02   6.126690E+01   1.181326E+02   1.585253E+02   1.206065E+02   3.194859E+02   5.655142E+02   5.655142E+02   4.660331E+02   1.058044E+02   1.058044E+02   1.017523E+02   9.108727E+01   9.108727E+01   8.380799E+01   8.380799E+01   8.380799E+01   2.961561E+01   2.961561E+01   2.961561E+01   1.170697E+02   1.170697E+02   1.170697E+02   1.170697E+02   1.170697E+02   1.464913E+02   1.464913E+02   1.464913E+02   1.464913E+02   1.464913E+02   2.685810E+02   2.685810E+02   2.685810E+02   2.685810E+02   2.685810E+02   2.685810E+02   2.685810E+02   6.442169E+02   6.442169E+02   6.442169E+02   6.442169E+02   6.442169E+02   6.442169E+02   6.442169E+02   6.442169E+02   6.442169E+02   6.442169E+02   3.627568E+02   3.627568E+02   3.627568E+02   3.627568E+02   3.627568E+02   3.627568E+02   3.627568E+02   3.627568E+02   3.627568E+02   2.260930E+02   2.260930E+02   2.260930E+02   2.260930E+02   2.260930E+02   2.260930E+02   2.260930E+02   2.283683E+01   2.283683E+01   2.283683E+01   2.283683E+01   2.283683E+01   2.779470E+01   2.779470E+01   2.779470E+01   2.779470E+01   1.498318E+01   1.498318E+01   1.498318E+01   9.102734E+00   9.102734E+00   3.552608E+01   3.552608E+01   3.375099E+01   3.375099E+01   2.273182E+01   5.857918E+01   2.246275E+02   2.246275E+02   2.509283E+02   1.997995E+02   3.083284E+02   5.229723E+02   6.866835E+02   3.163411E+02   3.373531E+02   8.086206E+01   7.224721E+01   2.392736E+02   6.237715E+01   8.059160E+01   3.452208E+02   5.128204E+02   4.910891E+02   1.176941E+02   5.997844E+01   1.153516E+02   5.360966E+01   5.505035E+01   8.159404E+01   1.395910E+02   2.261696E+02   4.936502E+02   5.016199E+02   5.642541E+02   1.282927E+02   1.854177E+02   2.321166E+02   3.975704E+02   8.363847E+02   3.489398E+02   1.891015E+02   1.557956E+02   1.292787E+02   3.247664E+01   1.886166E+01   5.647454E+01   1.135369E+02
   6.601552E+01   3.052577E+01   3.884264E+01   6.828753E+01   3.842404E+01   6.235061E+01   2.850612E+01   3.169294E+01   4.278857E+01   1.994054E+01   7.033050E+01   1.616020E+02   2.191156E+02   1.596736E+02   9.116652E+01   3.585625E+01   1.224772E+02   1.454324E+02   7.253038E+01   2.984422E+01   5.170989E+01   7.211402E+01   1.851609E+01   1.322214E+01   1.106287E+01   2.386166E+01   3.404293E+01   9.868872E+01   1.186900E+02   1.590987E+02   5.055175E+01   8.008320E+01   9.163241E+01   9.029191E+01   5.127386E+02   2.755513E+02   2.661297E+02   8.561546E+01   1.405667E+02   6.870745E+01   9.045877E+01   1.401963E+02   2.926190E+02   3.052362E+02   1.531633E+02   1.239143E+02   7.333936E+01   1.615758E+02   2.874626E+02   7.288231E+01   3.644920E+01   6.395011E+01   8.692544E+01   2.347969E+02   1.936359E+02   7.718708E+01   5.003528E+01   5.786340E+01   2.930833E+01   3.413924E+01   1.157891E+02   5.901276E+02   2.601778E+02   2.263326E+02   1.633609E+02   2.684098E+02   4.599543E+01   2.452498E+01   2.915009E+01   2.988136E+01   1.571472E+02   1.845041E+02   2.007252E+02   1.795946E+02   2.684986E+02   2.411943E+02   2.499053E+02   2.203297E+02   1.741152E+02   1.250053E+02   1.969644E+02   4.748466E+01   1.017443E+02   6.839622E+01   7.199886E+01   1.086688E+02   1.177575E+02   2.127693E+02   2.970014E+02   2.998455E+02   2.998455E+02   5.281559E+02   1.289327E+02   1.289327E+02   2.879397E+02   1.544310E+02   1.544310E+02   1.250326E+02   1.250326E+02   1.250326E+02   4.468976E+01   4.468976E+01   4.468976E+01   1.116451E+02   1.116451E+02   1.116451E+02   1.116451E+02   1.116451E+02   4.239073E+02   4.239073E+02   4.239073E+02   4.239073E+02   4.239073E+02   8.210469E+02   8.210469E+02   8.210469E+02   8.210469E+02   8.210469E+02   8.210469E+02   8.210469E+02   1.093540E+03   1.093540E+03   1.093540E+03   1.093540E+03   1.093540E+03   1.093540E+03   1.093540E+03   1.093540E+03   1.093540E+03   1.093540E+03   5.887363E+02   5.887363E+02   5.887363E+02   5.887363E+02   5.887363E+02   5.887363E+02   5.887363E+02   5.887363E+02   5.887363E+02   1.391679E+02   1.391679E+02   1.391679E+02   1.391679E+02   1.391679E+02   1.391679E+02   1.391679E+02   2.358741E+01   2.358741E+01   2.358741E+01   2.358741E+01   2.358741E+01   3.929500E+01   3.929500E+01   3.929500E+01   3.929500E+01   1.351717E+01   1.351717E+01   1.351717E+01   8.807513E+00   8.807513E+00   2.023377E+01   2.023377E+01   1.746475E+01   1.746475E+01   4.880153E+01   7.287916E+01   1.594444E+02   1.594444E+02   1.925300E+02   2.317652E+02   4.600031E+02   3.519943E+02   5.547344E+02   3.603133E+02   2.254491E+02   1.488728E+02   1.159244E+02   1.550847E+02   1.896440E+02   4.942353E+02   5.472961E+02   3.810081E+02   2.815285E+02   1.248702E+02   1.402542E+02   1.231076E+02   5.008175E+01   4.009705E+01   7.838684E+01   1.549715E+02   1.080774E+02   2.922957E+02   7.042207E+02   6.239475E+02   1.965219E+02   1.734508E+02   2.657260E+02   5.432449E+02   9.750610E+02   4.122562E+02   4.244567E+02   2.102057E+02   1.559964E+02   7.718194E+01   5.482057E+01   1.178273E+02   1.431929E+02
   1.150480E+02   7.431543E+01   6.915455E+01   5.059403E+01   6.308618E+01   3.561418E+01   3.433868E+01   2.442108E+01   3.209694E+01   1.429275E+01   1.218492E+02   1.274219E+02   2.852253E+02   1.301469E+02   1.176983E+02   1.350981E+02   1.530861E+02   1.031994E+02   5.903739E+01   2.397329E+01   8.048364E+01   4.347061E+01   1.781481E+01   1.613278E+01   8.419509E+00   9.510138E+00   3.809321E+01   8.877271E+01   8.298033E+01   1.589115E+02   6.157423E+01   1.297015E+02   8.828404E+01   1.713109E+02   6.985305E+02   2.210010E+02   2.398558E+02   8.157139E+01   8.822413E+01   7.329974E+01   4.991115E+01   1.123840E+02   1.484318E+02   3.272031E+02   9.244859E+01   6.816959E+01   2.333011E+01   6.850592E+01   1.304477E+02   6.161185E+01   2.655785E+01   1.187975E+02   7.959009E+01   1.863011E+02   1.845019E+02   7.494250E+01   2.237829E+01   4.438838E+01   6.465839E+01   4.565097E+01   1.751500E+02   4.536374E+02   1.661890E+02   2.446822E+02   1.087747E+02   1.703612E+02   4.131342E+01   2.243887E+01   4.242276E+01   4.836023E+01   1.390075E+02   1.488608E+02   1.684665E+02   1.861259E+02   7.759654E+01   2.503940E+02   1.940904E+02   3.368645E+02   1.426627E+02   1.037284E+02   1.298487E+02   4.668305E+01   6.147647E+01   5.432740E+01   6.239174E+01   6.407561E+01   5.511074E+01   1.720575E+02   2.253105E+02   1.643084E+02   1.643084E+02   2.803030E+02   1.279526E+02   1.279526E+02   5.931690E+02   3.626259E+02   3.626259E+02   1.124548E+02   1.124548E+02   1.124548E+02   4.847277E+01   4.847277E+01   4.847277E+01   1.016944E+02   1.016944E+02   1.016944E+02   1.016944E+02   1.016944E+02   4.491460E+02   4.491460E+02   4.491460E+02   4.491460E+02   4.491460E+02   6.075538E+02   6.075538E+02   6.075538E+02   6.075538E+02   6.075538E+02   6.075538E+02   6.075538E+02   7.267723E+02   7.267723E+02   7.267723E+02   7.267723E+02   7.267723E+02   7.267723E+02   7.267723E+02   7.267723E+02   7.267723E+02   7.267723E+02   2.590748E+02   2.590748E+02   2.590748E+02   2.590748E+02   2.590748E+02   2.590748E+02   2.590748E+02   2.590748E+02   2.590748E+02   1.270878E+02   1.270878E+02   1.270878E+02   1.270878E+02   1.270878E+02   1.270878E+02   1.270878E+02   5.104048E+01   5.104048E+01   5.104048E+01   5.104048E+01   5.104048E+01   1.943129E+01   1.943129E+01   1.943129E+01   1.943129E+01   1.659414E+01   1.659414E+01   1.659414E+01   1.080660E+01   1.080660E+01   2.824078E+01   2.824078E+01   2.735653E+01   2.735653E+01   9.304067E+01   1.241474E+02   1.207718E+02   1.207718E+02   1.634121E+02   1.958890E+02   3.272970E+02   3.857299E+02   6.820770E+02   2.493566E+02   2.473876E+02   1.261664E+02   1.461753E+02   1.181006E+02   2.591091E+02   3.462632E+02   3.672188E+02   3.292697E+02   1.509520E+02   1.807742E+02   1.634367E+02   1.219519E+02   5.422297E+01   2.962397E+01   5.254116E+01   1.095301E+02   1.328778E+02   9.248874E+02   1.434453E+03   6.304062E+02   2.058030E+02   3.432833E+02   2.529821E+02   6.038028E+02   1.249577E+03   8.921600E+02   3.860366E+02   1.296294E+02   1.595644E+02   4.197592E+01   3.639039E+01   8.449774E+01   2.226873E+02
   7.888921E+01   6.462603E+01   4.563111E+01   8.465686E+01   4.079328E+01   3.278728E+01   6.260484E+01   4.233616E+01   7.022655E+01   5.171336E+01   1.792182E+02   2.144795E+02   3.761692E+02   1.443602E+02   1.727798E+02   9.490198E+01   8.888382E+01   5.728318E+01   4.223308E+01   3.048877E+01   6.088486E+01   2.758314E+01   1.259943E+01   1.466307E+01   6.623788E+00   5.627886E+00   3.025980E+01   1.255611E+02   7.158761E+01   1.768572E+02   7.095381E+01   1.159393E+02   1.600191E+02   2.835429E+02   2.523234E+02   1.070669E+02   1.270052E+02   1.003380E+02   4.869341E+01   2.927560E+01   1.926219E+01   9.824083E+01   9.605305E+01   7.960435E+01   6.307120E+01   9.685297E+01   4.907420E+01   1.699123E+01   5.581926E+01   2.990064E+01   4.350269E+01   8.486935E+01   9.428897E+01   9.085028E+01   8.072348E+01   1.139331E+02   5.261221E+01   4.726901E+01   1.337794E+02   7.945535E+01   1.975173E+02   5.119759E+02   7.179624E+01   1.494944E+02   8.387617E+01   1.445995E+02   5.077895E+01   2.671017E+01   2.491028E+01   8.123779E+01   2.894152E+02   1.165559E+02   1.157878E+02   8.384971E+01   3.338162E+01   1.072675E+02   1.677206E+02   2.222047E+02   7.919244E+01   8.047610E+01   1.332879E+02   4.271105E+01   4.083915E+01   2.561024E+01   3.415863E+01   4.932590E+01   6.028524E+01   6.604294E+01   1.842434E+02   2.553178E+02   2.553178E+02   2.317752E+02   1.670939E+02   1.670939E+02   8.810807E+02   6.375190E+02   6.375190E+02   2.335224E+02   2.335224E+02   2.335224E+02   2.051212E+02   2.051212E+02   2.051212E+02   1.089666E+02   1.089666E+02   1.089666E+02   1.089666E+02   1.089666E+02   3.114805E+02   3.114805E+02   3.114805E+02   3.114805E+02   3.114805E+02   6.771230E+02   6.771230E+02   6.771230E+02   6.771230E+02   6.771230E+02   6.771230E+02   6.771230E+02   5.344435E+02   5.344435E+02   5.344435E+02   5.344435E+02   5.344435E+02   5.344435E+02   5.344435E+02   5.344435E+02   5.344435E+02   5.344435E+02   1.473376E+02   1.473376E+02   1.473376E+02   1.473376E+02   1.473376E+02   1.473376E+02   1.473376E+02   1.473376E+02   1.473376E+02   2.437387E+02   2.437387E+02   2.437387E+02   2.437387E+02   2.437387E+02   2.437387E+02   2.437387E+02   4.811269E+01   4.811269E+01   4.811269E+01   4.811269E+01   4.811269E+01   1.095389E+02   1.095389E+02   1.095389E+02   1.095389E+02   4.736457E+01   4.736457E+01   4.736457E+01   1.110173E+01   1.110173E+01   1.021306E+01   1.021306E+01   3.141034E+01   3.141034E+01   1.309450E+02   2.046195E+02   1.949618E+02   1.949618E+02   2.242133E+02   2.334175E+02   2.511111E+02   2.265400E+02   6.454575E+02   2.426746E+02   1.724478E+02   1.390269E+02   1.313946E+02   1.801263E+02   2.291929E+02   1.531883E+02   3.898923E+02   2.367087E+02   2.169046E+02   1.320461E+02   1.174362E+02   9.252435E+01   5.231791E+01   2.889491E+01   6.279444E+01   6.569855E+01   1.394513E+02   5.628397E+02   6.775737E+02   6.961876E+02   3.902861E+02   6.802965E+02   2.715851E+02   2.931290E+02   6.210364E+02   2.220045E+02   1.776453E+02   1.068397E+02   2.253786E+02   6.123203E+01   5.023347E+01   4.553747E+01   1.554166E+02