MODPATH_TIMESERIES_FILE         7         2
    2   0.0000000000E+00  0.0000000000E+00  0.0000000000E+00  0.0000000000E+00
END HEADER
       0       1  0.0000000000E+00         1    1         1     16483  0.4166666667E-01  0.4166666667E-01  0.5000000000E+00  0.9995360867E+03  0.4992921557E+03 -0.6388308287E+01         1
       0       1  0.0000000000E+00         2    1         2     16483  0.1250000000E+00  0.4166666667E-01  0.5000000000E+00  0.9996194200E+03  0.4992921557E+03 -0.6388308287E+01         1
       0       1  0.0000000000E+00         3    1         3     16483  0.2083333333E+00  0.4166666667E-01  0.5000000000E+00  0.9997027533E+03  0.4992921557E+03 -0.6388308287E+01         1
       0       1  0.0000000000E+00         4    1         4     16483  0.2916666667E+00  0.4166666667E-01  0.5000000000E+00  0.9997860867E+03  0.4992921557E+03 -0.6388308287E+01         1
       0       1  0.0000000000E+00         5    1         5     16483  0.3750000000E+00  0.4166666667E-01  0.5000000000E+00  0.9998694200E+03  0.4992921557E+03 -0.6388308287E+01         1
       0       1  0.0000000000E+00         6    1         6     16483  0.4583333333E+00  0.4166666667E-01  0.5000000000E+00  0.9999527533E+03  0.4992921557E+03 -0.6388308287E+01         1
       0       1  0.0000000000E+00         7    1         7     16483  0.5416666667E+00  0.4166666667E-01  0.5000000000E+00  0.1000036087E+04  0.4992921557E+03 -0.6388308287E+01         1
       0       1  0.0000000000E+00         8    1         8     16483  0.6250000000E+00  0.4166666667E-01  0.5000000000E+00  0.1000119420E+04  0.4992921557E+03 -0.6388308287E+01         1
       0       1  0.0000000000E+00         9    1         9     16483  0.7083333333E+00  0.4166666667E-01  0.5000000000E+00  0.1000202753E+04  0.4992921557E+03 -0.6388308287E+01         1
       0       1  0.0000000000E+00        10    1        10     16483  0.7916666667E+00  0.4166666667E-01  0.5000000000E+00  0.1000286087E+04  0.4992921557E+03 -0.6388308287E+01         1
       0       1  0.0000000000E+00        11    1        11     16483  0.8750000000E+00  0.4166666667E-01  0.5000000000E+00  0.1000369420E+04  0.4992921557E+03 -0.6388308287E+01         1
       0       1  0.0000000000E+00        12    1        12     16483  0.9583333333E+00  0.4166666667E-01  0.5000000000E+00  0.1000452753E+04  0.4992921557E+03 -0.6388308287E+01         1
       0       1  0.0000000000E+00        13    1        13     16483  0.4166666667E-01  0.1250000000E+00  0.5000000000E+00  0.9995360867E+03  0.4993754890E+03 -0.6388308287E+01         1
       0       1  0.0000000000E+00        14    1        14     16483  0.1250000000E+00  0.1250000000E+00  0.5000000000E+00  0.9996194200E+03  0.4993754890E+03 -0.6388308287E+01         1
       0       1  0.0000000000E+00        15    1        15     16483  0.2083333333E+00  0.1250000000E+00  0.5000000000E+00  0.9997027533E+03  0.4993754890E+03 -0.6388308287E+01         1
       0       1  0.0000000000E+00        16    1        16     16483  0.2916666667E+00  0.1250000000E+00  0.5000000000E+00  0.9997860867E+03  0.4993754890E+03 -0.6388308287E+01         1
       0       1  0.0000000000E+00        17    1        17     16483  0.3750000000E+00  0.1250000000E+00  0.5000000000E+00  0.9998694200E+03  0.4993754890E+03 -0.6388308287E+01         1
       0       1  0.0000000000E+00        18    1        18     16483  0.4583333333E+00  0.1250000000E+00  0.5000000000E+00  0.9999527533E+03  0.4993754890E+03 -0.6388308287E+01         1
       0       1  0.0000000000E+00        19    1        19     16483  0.5416666667E+00  0.1250000000E+00  0.5000000000E+00  0.1000036087E+04  0.4993754890E+03 -0.6388308287E+01         1
       0       1  0.0000000000E+00        20    1        20     16483  0.6250000000E+00  0.1250000000E+00  0.5000000000E+00  0.1000119420E+04  0.4993754890E+03 -0.6388308287E+01         1
       0       1  0.0000000000E+00        21    1        21     16483  0.7083333333E+00  0.1250000000E+00  0.5000000000E+00  0.1000202753E+04  0.4993754890E+03 -0.6388308287E+01         1
       0       1  0.0000000000E+00        22    1        22     16483  0.7916666667E+00  0.1250000000E+00  0.5000000000E+00  0.1000286087E+04  0.4993754890E+03 -0.6388308287E+01         1
       0       1  0.0000000000E+00        23    1        23     16483  0.8750000000E+00  0.1250000000E+00  0.5000000000E+00  0.1000369420E+04  0.4993754890E+03 -0.6388308287E+01         1
       0       1  0.0000000000E+00        24    1        24     16483  0.9583333333E+00  0.1250000000E+00  0.5000000000E+00  0.1000452753E+04  0.4993754890E+03 -0.6388308287E+01         1
       0       1  0.0000000000E+00        25    1        25     16483  0.4166666667E-01  0.2083333333E+00  0.5000000000E+00  0.9995360867E+03  0.4994588223E+03 -0.6388308287E+01         1
       0       1  0.0000000000E+00        26    1        26     16483  0.1250000000E+00  0.2083333333E+00  0.5000000000E+00  0.9996194200E+03  0.4994588223E+03 -0.6388308287E+01         1
       0       1  0.0000000000E+00        27    1        27     16483  0.2083333333E+00  0.2083333333E+00  0.5000000000E+00  0.9997027533E+03  0.4994588223E+03 -0.6388308287E+01         1
       0       1  0.0000000000E+00        28    1        28     16483  0.2916666667E+00  0.2083333333E+00  0.5000000000E+00  0.9997860867E+03  0.4994588223E+03 -0.6388308287E+01         1
       0       1  0.0000000000E+00        29    1        29     16483  0.3750000000E+00  0.2083333333E+00  0.5000000000E+00  0.9998694200E+03  0.4994588223E+03 -0.6388308287E+01         1
       0       1  0.0000000000E+00        30    1        30     16483  0.4583333333E+00  0.2083333333E+00  0.5000000000E+00  0.9999527533E+03  0.4994588223E+03 -0.6388308287E+01         1
       0       1  0.0000000000E+00        31    1        31     16483  0.5416666667E+00  0.2083333333E+00  0.5000000000E+00  0.1000036087E+04  0.4994588223E+03 -0.6388308287E+01         1
       0       1  0.0000000000E+00        32    1        32     16483  0.6250000000E+00  0.2083333333E+00  0.5000000000E+00  0.1000119420E+04  0.4994588223E+03 -0.6388308287E+01         1
       0       1  0.0000000000E+00        33    1        33     16483  0.7083333333E+00  0.2083333333E+00  0.5000000000E+00  0.1000202753E+04  0.4994588223E+03 -0.6388308287E+01         1
       0       1  0.0000000000E+00        34    1        34     16483  0.7916666667E+00  0.2083333333E+00  0.5000000000E+00  0.1000286087E+04  0.4994588223E+03 -0.6388308287E+01         1
       0       1  0.0000000000E+00        35    1        35     16483  0.8750000000E+00  0.2083333333E+00  0.5000000000E+00  0.1000369420E+04  0.4994588223E+03 -0.6388308287E+01         1
       0       1  0.0000000000E+00        36    1        36     16483  0.9583333333E+00  0.2083333333E+00  0.5000000000E+00  0.1000452753E+04  0.4994588223E+03 -0.6388308287E+01         1
       0       1  0.0000000000E+00        37    1        37     16483  0.4166666667E-01  0.2916666667E+00  0.5000000000E+00  0.9995360867E+03  0.4995421557E+03 -0.6388308287E+01         1
       0       1  0.0000000000E+00        38    1        38     16483  0.1250000000E+00  0.2916666667E+00  0.5000000000E+00  0.9996194200E+03  0.4995421557E+03 -0.6388308287E+01         1
       0       1  0.0000000000E+00        39    1        39     16483  0.2083333333E+00  0.2916666667E+00  0.5000000000E+00  0.9997027533E+03  0.4995421557E+03 -0.6388308287E+01         1
       0       1  0.0000000000E+00        40    1        40     16483  0.2916666667E+00  0.2916666667E+00  0.5000000000E+00  0.9997860867E+03  0.4995421557E+03 -0.6388308287E+01         1
       0       1  0.0000000000E+00        41    1        41     16483  0.3750000000E+00  0.2916666667E+00  0.5000000000E+00  0.9998694200E+03  0.4995421557E+03 -0.6388308287E+01         1
       0       1  0.0000000000E+00        42    1        42     16483  0.4583333333E+00  0.2916666667E+00  0.5000000000E+00  0.9999527533E+03  0.4995421557E+03 -0.6388308287E+01         1
       0       1  0.0000000000E+00        43    1        43     16483  0.5416666667E+00  0.2916666667E+00  0.5000000000E+00  0.1000036087E+04  0.4995421557E+03 -0.6388308287E+01         1
       0       1  0.0000000000E+00        44    1        44     16483  0.6250000000E+00  0.2916666667E+00  0.5000000000E+00  0.1000119420E+04  0.4995421557E+03 -0.6388308287E+01         1
       0       1  0.0000000000E+00        45    1        45     16483  0.7083333333E+00  0.2916666667E+00  0.5000000000E+00  0.1000202753E+04  0.4995421557E+03 -0.6388308287E+01         1
       0       1  0.0000000000E+00        46    1        46     16483  0.7916666667E+00  0.2916666667E+00  0.5000000000E+00  0.1000286087E+04  0.4995421557E+03 -0.6388308287E+01         1
       0       1  0.0000000000E+00        47    1        47     16483  0.8750000000E+00  0.2916666667E+00  0.5000000000E+00  0.1000369420E+04  0.4995421557E+03 -0.6388308287E+01         1
       0       1  0.0000000000E+00        48    1        48     16483  0.9583333333E+00  0.2916666667E+00  0.5000000000E+00  0.1000452753E+04  0.4995421557E+03 -0.6388308287E+01         1
       0       1  0.0000000000E+00        49    1        49     16483  0.4166666667E-01  0.3750000000E+00  0.5000000000E+00  0.9995360867E+03  0.4996254890E+03 -0.6388308287E+01         1
       0       1  0.0000000000E+00        50    1        50     16483  0.1250000000E+00  0.3750000000E+00  0.5000000000E+00  0.9996194200E+03  0.4996254890E+03 -0.6388308287E+01         1
       0       1  0.0000000000E+00        51    1        51     16483  0.2083333333E+00  0.3750000000E+00  0.5000000000E+00  0.9997027533E+03  0.4996254890E+03 -0.6388308287E+01         1
       0       1  0.0000000000E+00        52    1        52     16483  0.2916666667E+00  0.3750000000E+00  0.5000000000E+00  0.9997860867E+03  0.4996254890E+03 -0.6388308287E+01         1
       0       1  0.0000000000E+00        53    1        53     16483  0.3750000000E+00  0.3750000000E+00  0.5000000000E+00  0.9998694200E+03  0.4996254890E+03 -0.6388308287E+01         1
       0       1  0.0000000000E+00        54    1        54     16483  0.4583333333E+00  0.3750000000E+00  0.5000000000E+00  0.9999527533E+03  0.4996254890E+03 -0.6388308287E+01         1
       0       1  0.0000000000E+00        55    1        55     16483  0.5416666667E+00  0.3750000000E+00  0.5000000000E+00  0.1000036087E+04  0.4996254890E+03 -0.6388308287E+01         1
       0       1  0.0000000000E+00        56    1        56     16483  0.6250000000E+00  0.3750000000E+00  0.5000000000E+00  0.1000119420E+04  0.4996254890E+03 -0.6388308287E+01         1
       0       1  0.0000000000E+00        57    1        57     16483  0.7083333333E+00  0.3750000000E+00  0.5000000000E+00  0.1000202753E+04  0.4996254890E+03 -0.6388308287E+01         1
       0       1  0.0000000000E+00        58    1        58     16483  0.7916666667E+00  0.3750000000E+00  0.5000000000E+00  0.1000286087E+04  0.4996254890E+03 -0.6388308287E+01         1
       0       1  0.0000000000E+00        59    1        59     16483  0.8750000000E+00  0.3750000000E+00  0.5000000000E+00  0.1000369420E+04  0.4996254890E+03 -0.6388308287E+01         1
       0       1  0.0000000000E+00        60    1        60     16483  0.9583333333E+00  0.3750000000E+00  0.5000000000E+00  0.1000452753E+04  0.4996254890E+03 -0.6388308287E+01         1
       0       1  0.0000000000E+00        61    1        61     16483  0.4166666667E-01  0.4583333333E+00  0.5000000000E+00  0.9995360867E+03  0.4997088223E+03 -0.6388308287E+01         1
       0       1  0.0000000000E+00        62    1        62     16483  0.1250000000E+00  0.4583333333E+00  0.5000000000E+00  0.9996194200E+03  0.4997088223E+03 -0.6388308287E+01         1
       0       1  0.0000000000E+00        63    1        63     16483  0.2083333333E+00  0.4583333333E+00  0.5000000000E+00  0.9997027533E+03  0.4997088223E+03 -0.6388308287E+01         1
       0       1  0.0000000000E+00        64    1        64     16483  0.2916666667E+00  0.4583333333E+00  0.5000000000E+00  0.9997860867E+03  0.4997088223E+03 -0.6388308287E+01         1
       0       1  0.0000000000E+00        65    1        65     16483  0.3750000000E+00  0.4583333333E+00  0.5000000000E+00  0.9998694200E+03  0.4997088223E+03 -0.6388308287E+01         1
       0       1  0.0000000000E+00        66    1        66     16483  0.4583333333E+00  0.4583333333E+00  0.5000000000E+00  0.9999527533E+03  0.4997088223E+03 -0.6388308287E+01         1
       0       1  0.0000000000E+00        67    1        67     16483  0.5416666667E+00  0.4583333333E+00  0.5000000000E+00  0.1000036087E+04  0.4997088223E+03 -0.6388308287E+01         1
       0       1  0.0000000000E+00        68    1        68     16483  0.6250000000E+00  0.4583333333E+00  0.5000000000E+00  0.1000119420E+04  0.4997088223E+03 -0.6388308287E+01         1
       0       1  0.0000000000E+00        69    1        69     16483  0.7083333333E+00  0.4583333333E+00  0.5000000000E+00  0.1000202753E+04  0.4997088223E+03 -0.6388308287E+01         1
       0       1  0.0000000000E+00        70    1        70     16483  0.7916666667E+00  0.4583333333E+00  0.5000000000E+00  0.1000286087E+04  0.4997088223E+03 -0.6388308287E+01         1
       0       1  0.0000000000E+00        71    1        71     16483  0.8750000000E+00  0.4583333333E+00  0.5000000000E+00  0.1000369420E+04  0.4997088223E+03 -0.6388308287E+01         1
       0       1  0.0000000000E+00        72    1        72     16483  0.9583333333E+00  0.4583333333E+00  0.5000000000E+00  0.1000452753E+04  0.4997088223E+03 -0.6388308287E+01         1
       0       1  0.0000000000E+00        73    1        73     16483  0.4166666667E-01  0.5416666667E+00  0.5000000000E+00  0.9995360867E+03  0.4997921557E+03 -0.6388308287E+01         1
       0       1  0.0000000000E+00        74    1        74     16483  0.1250000000E+00  0.5416666667E+00  0.5000000000E+00  0.9996194200E+03  0.4997921557E+03 -0.6388308287E+01         1
       0       1  0.0000000000E+00        75    1        75     16483  0.2083333333E+00  0.5416666667E+00  0.5000000000E+00  0.9997027533E+03  0.4997921557E+03 -0.6388308287E+01         1
       0       1  0.0000000000E+00        76    1        76     16483  0.2916666667E+00  0.5416666667E+00  0.5000000000E+00  0.9997860867E+03  0.4997921557E+03 -0.6388308287E+01         1
       0       1  0.0000000000E+00        77    1        77     16483  0.3750000000E+00  0.5416666667E+00  0.5000000000E+00  0.9998694200E+03  0.4997921557E+03 -0.6388308287E+01         1
       0       1  0.0000000000E+00        78    1        78     16483  0.4583333333E+00  0.5416666667E+00  0.5000000000E+00  0.9999527533E+03  0.4997921557E+03 -0.6388308287E+01         1
       0       1  0.0000000000E+00        79    1        79     16483  0.5416666667E+00  0.5416666667E+00  0.5000000000E+00  0.1000036087E+04  0.4997921557E+03 -0.6388308287E+01         1
       0       1  0.0000000000E+00        80    1        80     16483  0.6250000000E+00  0.5416666667E+00  0.5000000000E+00  0.1000119420E+04  0.4997921557E+03 -0.6388308287E+01         1
       0       1  0.0000000000E+00        81    1        81     16483  0.7083333333E+00  0.5416666667E+00  0.5000000000E+00  0.1000202753E+04  0.4997921557E+03 -0.6388308287E+01         1
       0       1  0.0000000000E+00        82    1        82     16483  0.7916666667E+00  0.5416666667E+00  0.5000000000E+00  0.1000286087E+04  0.4997921557E+03 -0.6388308287E+01         1
       0       1  0.0000000000E+00        83    1        83     16483  0.8750000000E+00  0.5416666667E+00  0.5000000000E+00  0.1000369420E+04  0.4997921557E+03 -0.6388308287E+01         1
       0       1  0.0000000000E+00        84    1        84     16483  0.9583333333E+00  0.5416666667E+00  0.5000000000E+00  0.1000452753E+04  0.4997921557E+03 -0.6388308287E+01         1
       0       1  0.0000000000E+00        85    1        85     16483  0.4166666667E-01  0.6250000000E+00  0.5000000000E+00  0.9995360867E+03  0.4998754890E+03 -0.6388308287E+01         1
       0       1  0.0000000000E+00        86    1        86     16483  0.1250000000E+00  0.6250000000E+00  0.5000000000E+00  0.9996194200E+03  0.4998754890E+03 -0.6388308287E+01         1
       0       1  0.0000000000E+00        87    1        87     16483  0.2083333333E+00  0.6250000000E+00  0.5000000000E+00  0.9997027533E+03  0.4998754890E+03 -0.6388308287E+01         1
       0       1  0.0000000000E+00        88    1        88     16483  0.2916666667E+00  0.6250000000E+00  0.5000000000E+00  0.9997860867E+03  0.4998754890E+03 -0.6388308287E+01         1
       0       1  0.0000000000E+00        89    1        89     16483  0.3750000000E+00  0.6250000000E+00  0.5000000000E+00  0.9998694200E+03  0.4998754890E+03 -0.6388308287E+01         1
       0       1  0.0000000000E+00        90    1        90     16483  0.4583333333E+00  0.6250000000E+00  0.5000000000E+00  0.9999527533E+03  0.4998754890E+03 -0.6388308287E+01         1
       0       1  0.0000000000E+00        91    1        91     16483  0.5416666667E+00  0.6250000000E+00  0.5000000000E+00  0.1000036087E+04  0.4998754890E+03 -0.6388308287E+01         1
       0       1  0.0000000000E+00        92    1        92     16483  0.6250000000E+00  0.6250000000E+00  0.5000000000E+00  0.1000119420E+04  0.4998754890E+03 -0.6388308287E+01         1
       0       1  0.0000000000E+00        93    1        93     16483  0.7083333333E+00  0.6250000000E+00  0.5000000000E+00  0.1000202753E+04  0.4998754890E+03 -0.6388308287E+01         1
       0       1  0.0000000000E+00        94    1        94     16483  0.7916666667E+00  0.6250000000E+00  0.5000000000E+00  0.1000286087E+04  0.4998754890E+03 -0.6388308287E+01         1
       0       1  0.0000000000E+00        95    1        95     16483  0.8750000000E+00  0.6250000000E+00  0.5000000000E+00  0.1000369420E+04  0.4998754890E+03 -0.6388308287E+01         1
       0       1  0.0000000000E+00        96    1        96     16483  0.9583333333E+00  0.6250000000E+00  0.5000000000E+00  0.1000452753E+04  0.4998754890E+03 -0.6388308287E+01         1
       0       1  0.0000000000E+00        97    1        97     16483  0.4166666667E-01  0.7083333333E+00  0.5000000000E+00  0.9995360867E+03  0.4999588223E+03 -0.6388308287E+01         1
       0       1  0.0000000000E+00        98    1        98     16483  0.1250000000E+00  0.7083333333E+00  0.5000000000E+00  0.9996194200E+03  0.4999588223E+03 -0.6388308287E+01         1
       0       1  0.0000000000E+00        99    1        99     16483  0.2083333333E+00  0.7083333333E+00  0.5000000000E+00  0.9997027533E+03  0.4999588223E+03 -0.6388308287E+01         1
       0       1  0.0000000000E+00       100    1       100     16483  0.2916666667E+00  0.7083333333E+00  0.5000000000E+00  0.9997860867E+03  0.4999588223E+03 -0.6388308287E+01         1
       0       1  0.0000000000E+00       101    1       101     16483  0.3750000000E+00  0.7083333333E+00  0.5000000000E+00  0.9998694200E+03  0.4999588223E+03 -0.6388308287E+01         1
       0       1  0.0000000000E+00       102    1       102     16483  0.4583333333E+00  0.7083333333E+00  0.5000000000E+00  0.9999527533E+03  0.4999588223E+03 -0.6388308287E+01         1
       0       1  0.0000000000E+00       103    1       103     16483  0.5416666667E+00  0.7083333333E+00  0.5000000000E+00  0.1000036087E+04  0.4999588223E+03 -0.6388308287E+01         1
       0       1  0.0000000000E+00       104    1       104     16483  0.6250000000E+00  0.7083333333E+00  0.5000000000E+00  0.1000119420E+04  0.4999588223E+03 -0.6388308287E+01         1
       0       1  0.0000000000E+00       105    1       105     16483  0.7083333333E+00  0.7083333333E+00  0.5000000000E+00  0.1000202753E+04  0.4999588223E+03 -0.6388308287E+01         1
       0       1  0.0000000000E+00       106    1       106     16483  0.7916666667E+00  0.7083333333E+00  0.5000000000E+00  0.1000286087E+04  0.4999588223E+03 -0.6388308287E+01         1
       0       1  0.0000000000E+00       107    1       107     16483  0.8750000000E+00  0.7083333333E+00  0.5000000000E+00  0.1000369420E+04  0.4999588223E+03 -0.6388308287E+01         1
       0       1  0.0000000000E+00       108    1       108     16483  0.9583333333E+00  0.7083333333E+00  0.5000000000E+00  0.1000452753E+04  0.4999588223E+03 -0.6388308287E+01         1
       0       1  0.0000000000E+00       109    1       109     16483  0.4166666667E-01  0.7916666667E+00  0.5000000000E+00  0.9995360867E+03  0.5000421557E+03 -0.6388308287E+01         1
       0       1  0.0000000000E+00       110    1       110     16483  0.1250000000E+00  0.7916666667E+00  0.5000000000E+00  0.9996194200E+03  0.5000421557E+03 -0.6388308287E+01         1
       0       1  0.0000000000E+00       111    1       111     16483  0.2083333333E+00  0.7916666667E+00  0.5000000000E+00  0.9997027533E+03  0.5000421557E+03 -0.6388308287E+01         1
       0       1  0.0000000000E+00       112    1       112     16483  0.2916666667E+00  0.7916666667E+00  0.5000000000E+00  0.9997860867E+03  0.5000421557E+03 -0.6388308287E+01         1
       0       1  0.0000000000E+00       113    1       113     16483  0.3750000000E+00  0.7916666667E+00  0.5000000000E+00  0.9998694200E+03  0.5000421557E+03 -0.6388308287E+01         1
       0       1  0.0000000000E+00       114    1       114     16483  0.4583333333E+00  0.7916666667E+00  0.5000000000E+00  0.9999527533E+03  0.5000421557E+03 -0.6388308287E+01         1
       0       1  0.0000000000E+00       115    1       115     16483  0.5416666667E+00  0.7916666667E+00  0.5000000000E+00  0.1000036087E+04  0.5000421557E+03 -0.6388308287E+01         1
       0       1  0.0000000000E+00       116    1       116     16483  0.6250000000E+00  0.7916666667E+00  0.5000000000E+00  0.1000119420E+04  0.5000421557E+03 -0.6388308287E+01         1
       0       1  0.0000000000E+00       117    1       117     16483  0.7083333333E+00  0.7916666667E+00  0.5000000000E+00  0.1000202753E+04  0.5000421557E+03 -0.6388308287E+01         1
       0       1  0.0000000000E+00       118    1       118     16483  0.7916666667E+00  0.7916666667E+00  0.5000000000E+00  0.1000286087E+04  0.5000421557E+03 -0.6388308287E+01         1
       0       1  0.0000000000E+00       119    1       119     16483  0.8750000000E+00  0.7916666667E+00  0.5000000000E+00  0.1000369420E+04  0.5000421557E+03 -0.6388308287E+01         1
       0       1  0.0000000000E+00       120    1       120     16483  0.9583333333E+00  0.7916666667E+00  0.5000000000E+00  0.1000452753E+04  0.5000421557E+03 -0.6388308287E+01         1
       0       1  0.0000000000E+00       121    1       121     16483  0.4166666667E-01  0.8750000000E+00  0.5000000000E+00  0.9995360867E+03  0.5001254890E+03 -0.6388308287E+01         1
       0       1  0.0000000000E+00       122    1       122     16483  0.1250000000E+00  0.8750000000E+00  0.5000000000E+00  0.9996194200E+03  0.5001254890E+03 -0.6388308287E+01         1
       0       1  0.0000000000E+00       123    1       123     16483  0.2083333333E+00  0.8750000000E+00  0.5000000000E+00  0.9997027533E+03  0.5001254890E+03 -0.6388308287E+01         1
       0       1  0.0000000000E+00       124    1       124     16483  0.2916666667E+00  0.8750000000E+00  0.5000000000E+00  0.9997860867E+03  0.5001254890E+03 -0.6388308287E+01         1
       0       1  0.0000000000E+00       125    1       125     16483  0.3750000000E+00  0.8750000000E+00  0.5000000000E+00  0.9998694200E+03  0.5001254890E+03 -0.6388308287E+01         1
       0       1  0.0000000000E+00       126    1       126     16483  0.4583333333E+00  0.8750000000E+00  0.5000000000E+00  0.9999527533E+03  0.5001254890E+03 -0.6388308287E+01         1
       0       1  0.0000000000E+00       127    1       127     16483  0.5416666667E+00  0.8750000000E+00  0.5000000000E+00  0.1000036087E+04  0.5001254890E+03 -0.6388308287E+01         1
       0       1  0.0000000000E+00       128    1       128     16483  0.6250000000E+00  0.8750000000E+00  0.5000000000E+00  0.1000119420E+04  0.5001254890E+03 -0.6388308287E+01         1
       0       1  0.0000000000E+00       129    1       129     16483  0.7083333333E+00  0.8750000000E+00  0.5000000000E+00  0.1000202753E+04  0.5001254890E+03 -0.6388308287E+01         1
       0       1  0.0000000000E+00       130    1       130     16483  0.7916666667E+00  0.8750000000E+00  0.5000000000E+00  0.1000286087E+04  0.5001254890E+03 -0.6388308287E+01         1
       0       1  0.0000000000E+00       131    1       131     16483  0.8750000000E+00  0.8750000000E+00  0.5000000000E+00  0.1000369420E+04  0.5001254890E+03 -0.6388308287E+01         1
       0       1  0.0000000000E+00       132    1       132     16483  0.9583333333E+00  0.8750000000E+00  0.5000000000E+00  0.1000452753E+04  0.5001254890E+03 -0.6388308287E+01         1
       0       1  0.0000000000E+00       133    1       133     16483  0.4166666667E-01  0.9583333333E+00  0.5000000000E+00  0.9995360867E+03  0.5002088223E+03 -0.6388308287E+01         1
       0       1  0.0000000000E+00       134    1       134     16483  0.1250000000E+00  0.9583333333E+00  0.5000000000E+00  0.9996194200E+03  0.5002088223E+03 -0.6388308287E+01         1
       0       1  0.0000000000E+00       135    1       135     16483  0.2083333333E+00  0.9583333333E+00  0.5000000000E+00  0.9997027533E+03  0.5002088223E+03 -0.6388308287E+01         1
       0       1  0.0000000000E+00       136    1       136     16483  0.2916666667E+00  0.9583333333E+00  0.5000000000E+00  0.9997860867E+03  0.5002088223E+03 -0.6388308287E+01         1
       0       1  0.0000000000E+00       137    1       137     16483  0.3750000000E+00  0.9583333333E+00  0.5000000000E+00  0.9998694200E+03  0.5002088223E+03 -0.6388308287E+01         1
       0       1  0.0000000000E+00       138    1       138     16483  0.4583333333E+00  0.9583333333E+00  0.5000000000E+00  0.9999527533E+03  0.5002088223E+03 -0.6388308287E+01         1
       0       1  0.0000000000E+00       139    1       139     16483  0.5416666667E+00  0.9583333333E+00  0.5000000000E+00  0.1000036087E+04  0.5002088223E+03 -0.6388308287E+01         1
       0       1  0.0000000000E+00       140    1       140     16483  0.6250000000E+00  0.9583333333E+00  0.5000000000E+00  0.1000119420E+04  0.5002088223E+03 -0.6388308287E+01         1
       0       1  0.0000000000E+00       141    1       141     16483  0.7083333333E+00  0.9583333333E+00  0.5000000000E+00  0.1000202753E+04  0.5002088223E+03 -0.6388308287E+01         1
       0       1  0.0000000000E+00       142    1       142     16483  0.7916666667E+00  0.9583333333E+00  0.5000000000E+00  0.1000286087E+04  0.5002088223E+03 -0.6388308287E+01         1
       0       1  0.0000000000E+00       143    1       143     16483  0.8750000000E+00  0.9583333333E+00  0.5000000000E+00  0.1000369420E+04  0.5002088223E+03 -0.6388308287E+01         1
       0       1  0.0000000000E+00       144    1       144     16483  0.9583333333E+00  0.9583333333E+00  0.5000000000E+00  0.1000452753E+04  0.5002088223E+03 -0.6388308287E+01         1
       1       1  0.3000000000E+00         1    1         1     17304  0.5023277808E+00  0.3110503198E+00  0.5000000000E+00  0.9929967478E+03  0.4955615393E+03 -0.6332530737E+01         1
       1       1  0.3000000000E+00         2    1         2     17512  0.1950706218E+00  0.3327937747E+00  0.5000000000E+00  0.9936894906E+03  0.4945832828E+03 -0.6333394289E+01         1
       1       1  0.3000000000E+00         3    1         3     17720  0.4741471665E-02  0.4680413228E+00  0.5000000000E+00  0.9944991615E+03  0.4937185303E+03 -0.6333830595E+01         1
       1       1  0.3000000000E+00         4    1         4     17927  0.9373341136E+00  0.7615492113E+00  0.5000000000E+00  0.9954317541E+03  0.4930120382E+03 -0.6332644343E+01         1
       1       1  0.3000000000E+00         5    1         5     17928  0.9785527977E+00  0.1805747082E+00  0.5000000000E+00  0.9964729728E+03  0.4924310637E+03 -0.6333843827E+01         1
       1       1  0.3000000000E+00         6    1         6     18137  0.1345730674E+00  0.7722109020E+00  0.5000000000E+00  0.9976289931E+03  0.4920226999E+03 -0.6334327102E+01         1
       1       1  0.3000000000E+00         7    1         7     18138  0.3886866988E+00  0.5445371492E+00  0.5000000000E+00  0.9988831067E+03  0.4917950261E+03 -0.6334941387E+01         1
       1       1  0.3000000000E+00         8    1         8     18139  0.7075764201E+00  0.5021708321E+00  0.5000000000E+00  0.1000201996E+04  0.4917526598E+03 -0.6335320234E+01         1
       1       1  0.3000000000E+00         9    1         9     17727  0.3351612465E+00  0.1515022619E+00  0.5000000000E+00  0.1001829581E+04  0.4934019913E+03 -0.6338601232E+01         1
       1       1  0.3000000000E+00        10    1        10     17728  0.7867201608E+00  0.9415959095E+00  0.5000000000E+00  0.1003281140E+04  0.4941920849E+03 -0.6337904930E+01         1
       1       1  0.3000000000E+00        11    1        11     17316  0.3190914366E-01  0.1831261102E-01  0.5000000000E+00  0.1004526329E+04  0.4952688016E+03 -0.6338208556E+01         1
       1       1  0.3000000000E+00        12    1        12     17109  0.9623697276E+00  0.4105439676E+00  0.5000000000E+00  0.1005456790E+04  0.4966610330E+03 -0.6339078546E+01         1
       1       1  0.3000000000E+00        13    1        13     17096  0.8963849251E+00  0.4388619900E+00  0.5000000000E+00  0.9923908049E+03  0.4966893510E+03 -0.6331309915E+01         1
       1       1  0.3000000000E+00        14    1        14     17304  0.4707349258E+00  0.3848924172E+00  0.5000000000E+00  0.9929651549E+03  0.4956353814E+03 -0.6332530737E+01         1