# LPF package for  MODFLOW-2005, generated by Flopy.
        53    -1E+30         0  
         1
         0
   0.000000E+00
         0
         0
INTERNAL               1 (207E15.6) -1 #hk layer 1                    
   5.688206E-02   8.604057E-02   4.220291E-02   3.906270E-02   4.698049E-02   1.007273E-01   2.055960E-02   3.318973E-02   5.780208E-02   3.617223E-02   4.710880E-02   3.268320E-02   4.021346E-02   6.973113E-02   7.226091E-02   5.226512E-02   4.853285E-02   2.769849E-02   3.051262E-02   9.471264E-03   6.609226E-03   2.281241E-02   1.810541E-02   2.887129E-02   1.946204E-02   4.686733E-02   2.216186E-02   4.606044E-02   4.340030E-02   2.282135E-02   7.442179E-02   4.258129E-02   5.726020E-02   3.885474E-02   1.481844E-02   1.783679E-02   2.144801E-02   2.008516E-02   2.281451E-02   1.494107E-02   1.307157E-02   1.701894E-02   4.939032E-02   5.752276E-02   7.542875E-02   8.966352E-02   3.683854E-02   2.087961E-02   2.332195E-02   1.907466E-02   8.091764E-03   2.752714E-03   1.123806E-02   7.244271E-03   1.100875E-02   1.109924E-02   1.744548E-02   1.230404E-02   2.910198E-02   1.677917E-02   1.502544E-02   8.082159E-03   1.418644E-02   9.940578E-02   5.904135E-02   5.324601E-01   1.612996E-01   9.646904E-02   5.499724E-02   4.868572E-02   5.956144E-02   2.370535E-02   1.806067E-02   6.403572E-02   5.238422E-02   7.067083E-02   3.056266E-02   3.546808E-02   4.405939E-02   2.316413E-02   3.839961E-03   4.602206E-03   1.439647E-02   6.008746E-03   9.853719E-03   3.695869E-02   5.461651E-02   1.239648E-01   7.193516E-02   8.630922E-02   8.630922E-02   6.092822E-02   2.304546E-01   2.304546E-01   1.300723E-01   5.114047E-02   5.114047E-02   1.528702E-02   1.528702E-02   1.528702E-02   1.418332E-02   1.418332E-02   1.418332E-02   1.412591E-02   1.412591E-02   1.412591E-02   1.412591E-02   1.412591E-02   1.023566E-02   1.023566E-02   1.023566E-02   1.023566E-02   1.023566E-02   9.522395E-03   9.522395E-03   9.522395E-03   9.522395E-03   9.522395E-03   9.522395E-03   9.522395E-03   1.302989E-02   1.302989E-02   1.302989E-02   1.302989E-02   1.302989E-02   1.302989E-02   1.302989E-02   1.302989E-02   1.302989E-02   1.302989E-02   2.191274E-02   2.191274E-02   2.191274E-02   2.191274E-02   2.191274E-02   2.191274E-02   2.191274E-02   2.191274E-02   2.191274E-02   1.075211E-02   1.075211E-02   1.075211E-02   1.075211E-02   1.075211E-02   1.075211E-02   1.075211E-02   1.710155E-02   1.710155E-02   1.710155E-02   1.710155E-02   1.710155E-02   1.606103E-02   1.606103E-02   1.606103E-02   1.606103E-02   2.549483E-02   2.549483E-02   2.549483E-02   1.233526E-02   1.233526E-02   7.303136E-03   7.303136E-03   8.925529E-03   8.925529E-03   2.514993E-02   1.162829E-02   4.032429E-02   4.032429E-02   3.591517E-02   3.531003E-02   3.999850E-02   2.096920E-02   1.127882E-02   8.794492E-03   1.931579E-02   1.363527E-02   1.716453E-02   3.655664E-02   2.747907E-02   1.591995E-02   3.345101E-02   3.069263E-02   1.331839E-02   1.551150E-02   4.490366E-02   9.646384E-02   6.427035E-02   1.941605E-02   3.877957E-02   1.780781E-02   1.772920E-02   1.088889E-01   8.942866E-02   6.519478E-02   4.433417E-02   6.605092E-02   3.108315E-02   3.425326E-02   9.034283E-02   9.771902E-02   1.736089E-01   1.080098E-01   6.347308E-02   9.508387E-02   8.534840E-02   4.847394E-02   2.384719E-02
   4.580066E-02   4.738520E-02   4.178929E-02   3.858242E-02   4.391294E-02   6.979065E-02   2.751032E-02   2.336488E-02   6.206462E-02   2.493569E-02   4.353651E-02   1.468695E-01   4.354015E-02   6.135445E-02   2.759608E-02   1.264519E-02   1.010830E-01   5.157326E-02   1.279016E-02   1.202609E-02   1.024361E-02   1.956521E-02   1.812695E-02   2.620278E-02   1.797180E-02   2.355469E-02   3.727789E-02   7.466455E-02   2.034469E-02   1.385998E-02   5.019068E-02   3.240494E-02   9.068444E-02   6.899096E-02   1.384044E-02   1.389970E-02   2.388817E-02   2.974720E-02   1.559878E-02   6.144233E-03   1.620869E-02   1.744266E-02   4.876362E-02   4.452458E-02   3.026560E-02   3.970587E-02   1.250343E-02   2.101905E-02   4.279457E-02   2.349350E-02   9.223017E-03   7.725855E-03   7.320815E-03   2.557287E-03   3.285494E-03   1.303424E-02   4.151481E-02   1.545486E-02   1.747625E-02   2.721972E-02   1.282954E-02   3.903733E-03   7.644355E-03   6.581204E-02   4.684269E-02   1.713808E-01   1.579848E-01   1.206566E-01   4.625953E-02   1.096092E-01   6.660318E-02   1.872807E-02   2.737115E-02   8.266054E-02   1.672043E-01   1.369327E-01   5.368655E-02   5.615678E-02   1.178096E-01   7.794193E-03   7.981166E-03   1.424831E-02   1.843919E-02   1.041052E-02   1.702680E-02   4.674562E-02   2.268586E-02   1.625763E-01   5.178276E-02   1.159406E-01   1.159406E-01   9.613933E-02   1.670797E-01   1.670797E-01   1.205196E-01   4.473766E-02   4.473766E-02   2.483221E-02   2.483221E-02   2.483221E-02   2.264271E-02   2.264271E-02   2.264271E-02   1.363892E-02   1.363892E-02   1.363892E-02   1.363892E-02   1.363892E-02   1.025422E-02   1.025422E-02   1.025422E-02   1.025422E-02   1.025422E-02   7.349997E-03   7.349997E-03   7.349997E-03   7.349997E-03   7.349997E-03   7.349997E-03   7.349997E-03   1.824486E-02   1.824486E-02   1.824486E-02   1.824486E-02   1.824486E-02   1.824486E-02   1.824486E-02   1.824486E-02   1.824486E-02   1.824486E-02   1.615685E-02   1.615685E-02   1.615685E-02   1.615685E-02   1.615685E-02   1.615685E-02   1.615685E-02   1.615685E-02   1.615685E-02   3.371207E-02   3.371207E-02   3.371207E-02   3.371207E-02   3.371207E-02   3.371207E-02   3.371207E-02   4.744388E-02   4.744388E-02   4.744388E-02   4.744388E-02   4.744388E-02   1.002229E-02   1.002229E-02   1.002229E-02   1.002229E-02   1.576922E-02   1.576922E-02   1.576922E-02   8.174691E-03   8.174691E-03   1.081352E-02   1.081352E-02   1.598904E-02   1.598904E-02   1.413637E-02   8.817107E-03   5.329544E-02   5.329544E-02   6.250472E-02   4.474090E-02   4.101370E-02   1.520269E-02   1.720404E-02   8.472499E-03   1.283994E-02   1.259864E-02   1.720161E-02   5.976570E-02   1.818376E-02   1.314209E-02   3.364580E-02   2.668789E-02   3.825619E-02   2.316302E-02   2.725087E-02   7.892003E-02   8.427445E-02   4.667304E-02   5.941053E-02   3.768581E-02   2.230712E-02   9.525056E-02   1.591860E-01   1.217064E-01   6.730398E-02   3.774289E-02   5.708101E-02   5.724661E-02   5.196580E-02   3.351382E-02   9.607860E-02   6.832711E-02   6.538852E-02   9.456404E-02   8.077732E-02   6.117344E-02   3.584864E-02
   8.152460E-02   2.430220E-02   1.733609E-02   1.174731E-02   2.759051E-02   3.584832E-02   2.733447E-02   2.198868E-02   9.222256E-02   7.320640E-02   6.357035E-02   9.002110E-02   7.151648E-02   4.876744E-02   2.321444E-02   2.403553E-02   4.098624E-02   1.601429E-02   9.482324E-03   1.308742E-02   1.334723E-02   2.747762E-02   1.495515E-02   1.322040E-02   1.676298E-02   1.334880E-02   6.443706E-02   8.381423E-02   3.851609E-02   1.926973E-02   4.636866E-02   2.541968E-02   9.145744E-02   4.533618E-02   2.556845E-02   3.970877E-02   2.042155E-02   2.050865E-02   1.674745E-02   1.056337E-02   1.125808E-02   2.194922E-02   4.805173E-02   7.277473E-02   3.520196E-02   1.824583E-02   1.730819E-02   5.752901E-02   3.365755E-02   2.768669E-02   1.995139E-02   2.209015E-02   8.803555E-03   6.621237E-03   6.063197E-03   1.140837E-02   1.463727E-02   1.624138E-02   1.469744E-02   2.064763E-02   3.482142E-03   3.199135E-03   5.389498E-03   3.854401E-02   3.179482E-02   3.059000E-02   5.297161E-02   5.284180E-02   1.124354E-01   1.952981E-01   7.830220E-02   2.113144E-02   1.292831E-01   1.053936E-01   2.600729E-01   1.080085E-01   7.573075E-02   4.758232E-02   3.615226E-02   2.023081E-02   1.291332E-02   1.100511E-02   6.039361E-02   1.629534E-02   2.291626E-02   2.541396E-02   3.619322E-02   8.285753E-02   4.675183E-02   1.011732E-01   1.011732E-01   2.423529E-01   2.540089E-01   2.540089E-01   8.379085E-02   5.730721E-02   5.730721E-02   4.838496E-02   4.838496E-02   4.838496E-02   4.838655E-02   4.838655E-02   4.838655E-02   2.302945E-02   2.302945E-02   2.302945E-02   2.302945E-02   2.302945E-02   1.319235E-02   1.319235E-02   1.319235E-02   1.319235E-02   1.319235E-02   1.290510E-02   1.290510E-02   1.290510E-02   1.290510E-02   1.290510E-02   1.290510E-02   1.290510E-02   1.900696E-02   1.900696E-02   1.900696E-02   1.900696E-02   1.900696E-02   1.900696E-02   1.900696E-02   1.900696E-02   1.900696E-02   1.900696E-02   2.158993E-02   2.158993E-02   2.158993E-02   2.158993E-02   2.158993E-02   2.158993E-02   2.158993E-02   2.158993E-02   2.158993E-02   7.377153E-02   7.377153E-02   7.377153E-02   7.377153E-02   7.377153E-02   7.377153E-02   7.377153E-02   5.408765E-02   5.408765E-02   5.408765E-02   5.408765E-02   5.408765E-02   1.307741E-02   1.307741E-02   1.307741E-02   1.307741E-02   3.377255E-02   3.377255E-02   3.377255E-02   5.683449E-03   5.683449E-03   1.371845E-02   1.371845E-02   6.828793E-03   6.828793E-03   1.417117E-02   1.428981E-02   3.277898E-02   3.277898E-02   7.390355E-02   3.110644E-02   2.083075E-02   7.289123E-03   1.134540E-02   1.339739E-02   1.380092E-02   1.426497E-02   5.497748E-02   3.716690E-02   1.847707E-02   2.452189E-02   9.291388E-02   5.943535E-02   3.008973E-02   3.234504E-02   1.350127E-02   5.671753E-02   1.302405E-01   5.528093E-02   2.958160E-02   5.016624E-02   8.056232E-02   8.271414E-02   2.840615E-01   1.672786E-01   3.154469E-02   9.011649E-02   4.875698E-02   6.289306E-02   2.603964E-02   4.222561E-02   4.214069E-02   4.941651E-02   6.443618E-02   4.539043E-02   9.547142E-02   6.473827E-02   8.895776E-02
   6.732757E-02   2.662900E-02   2.251528E-02   1.479918E-02   1.658977E-02   3.052299E-02   5.430150E-02   6.143803E-02   4.931096E-02   6.482322E-02   1.847378E-01   1.689865E-01   2.825887E-02   3.150747E-02   1.955421E-02   3.101439E-02   2.113333E-02   4.783626E-03   4.962805E-03   1.512104E-02   1.792726E-02   1.390949E-02   1.138063E-02   9.277840E-03   2.422472E-02   2.965574E-02   2.867563E-02   3.019819E-02   2.910731E-02   1.792133E-02   5.319071E-02   1.162783E-01   1.826645E-01   8.708515E-02   4.904994E-02   9.183498E-02   1.824966E-02   1.922730E-02   1.093917E-02   1.228217E-02   2.208578E-02   2.063801E-02   6.016657E-02   8.544328E-02   1.010167E-02   6.901092E-03   1.326168E-02   3.317928E-02   1.247851E-01   3.352873E-02   4.574304E-02   3.351569E-02   1.068501E-02   1.030914E-02   7.998936E-03   5.106877E-03   1.001031E-02   1.026925E-02   1.758418E-02   1.146664E-02   8.877966E-03   7.678729E-03   3.690843E-03   1.618947E-02   2.114747E-02   2.114106E-02   1.084690E-02   6.790865E-02   5.469686E-02   1.939047E-01   7.805071E-02   3.836751E-02   5.608983E-02   1.265924E-01   2.212642E-01   1.302424E-01   8.984379E-02   5.744344E-02   4.529833E-02   3.795652E-02   1.666684E-02   2.046214E-02   3.714132E-02   1.620821E-02   3.737349E-02   2.218230E-02   1.565471E-02   4.565631E-02   6.112579E-02   5.511716E-02   5.511716E-02   3.812741E-01   6.275175E-01   6.275175E-01   7.537901E-02   5.319650E-02   5.319650E-02   8.837639E-02   8.837639E-02   8.837639E-02   8.622842E-02   8.622842E-02   8.622842E-02   2.372618E-02   2.372618E-02   2.372618E-02   2.372618E-02   2.372618E-02   1.154226E-02   1.154226E-02   1.154226E-02   1.154226E-02   1.154226E-02   2.401540E-02   2.401540E-02   2.401540E-02   2.401540E-02   2.401540E-02   2.401540E-02   2.401540E-02   3.136034E-02   3.136034E-02   3.136034E-02   3.136034E-02   3.136034E-02   3.136034E-02   3.136034E-02   3.136034E-02   3.136034E-02   3.136034E-02   3.707876E-02   3.707876E-02   3.707876E-02   3.707876E-02   3.707876E-02   3.707876E-02   3.707876E-02   3.707876E-02   3.707876E-02   4.179734E-02   4.179734E-02   4.179734E-02   4.179734E-02   4.179734E-02   4.179734E-02   4.179734E-02   2.891554E-02   2.891554E-02   2.891554E-02   2.891554E-02   2.891554E-02   3.176442E-02   3.176442E-02   3.176442E-02   3.176442E-02   3.597704E-02   3.597704E-02   3.597704E-02   9.259509E-03   9.259509E-03   1.780371E-02   1.780371E-02   8.543928E-03   8.543928E-03   1.281433E-02   7.692140E-03   5.134456E-02   5.134456E-02   3.168235E-02   2.346734E-02   3.160377E-02   1.424298E-02   2.445406E-02   1.880153E-02   9.850018E-03   1.546899E-02   4.139920E-02   3.556285E-02   3.015334E-02   4.666420E-02   1.016216E-01   6.230381E-02   3.967264E-02   5.863700E-02   3.289004E-02   9.159623E-02   1.246976E-01   4.599677E-02   3.792462E-02   5.455738E-02   4.728479E-02   8.255572E-02   1.215426E-01   1.464074E-01   5.865023E-02   7.399529E-02   2.644504E-02   4.200897E-02   2.708439E-02   4.130214E-02   3.013301E-02   3.669533E-02   7.389607E-02   5.954669E-02   9.350542E-02   1.620654E-01   8.593854E-02
   1.242362E-01   4.475373E-02   2.036374E-02   1.181575E-02   2.967888E-02   5.183582E-02   5.445683E-02   4.534100E-02   5.710008E-02   5.783715E-02   6.774511E-02   9.983190E-02   4.578973E-02   3.060609E-02   1.698407E-02   3.796723E-02   6.314597E-03   1.245559E-02   7.649281E-03   1.562928E-02   8.986232E-03   1.760371E-02   1.148319E-02   8.875235E-03   1.684797E-02   2.526790E-02   1.305548E-02   2.240644E-02   2.038516E-02   2.329890E-02   8.670805E-02   2.022456E-01   2.100875E-01   1.123028E-01   1.124490E-01   1.051453E-01   3.241170E-02   3.808717E-02   1.511006E-02   1.827739E-02   2.469119E-02   2.594474E-02   1.233362E-01   5.796255E-02   1.340045E-02   1.046805E-02   1.225716E-02   1.977442E-02   1.439447E-01   5.674378E-02   3.953021E-02   2.701772E-02   4.208538E-02   2.892621E-02   2.147352E-02   1.546359E-02   1.226804E-02   1.613613E-02   1.789812E-02   1.573602E-02   1.043734E-02   8.434936E-03   5.667045E-03   1.034750E-02   1.594070E-02   1.872401E-02   2.694291E-02   2.992356E-02   5.730015E-02   3.932112E-01   2.297499E-01   3.644654E-02   4.058237E-02   7.686461E-02   3.130656E-01   2.547981E-01   7.460313E-02   4.437307E-02   1.024937E-01   3.326212E-02   1.733064E-02   1.753717E-02   5.466410E-02   4.039300E-02   6.712467E-02   3.523125E-02   4.019636E-02   5.252900E-02   9.285972E-02   1.285038E-01   1.285038E-01   1.989902E-01   2.296322E-01   2.296322E-01   9.022503E-02   6.225343E-02   6.225343E-02   6.542426E-02   6.542426E-02   6.542426E-02   7.764310E-02   7.764310E-02   7.764310E-02   1.694950E-02   1.694950E-02   1.694950E-02   1.694950E-02   1.694950E-02   1.650517E-02   1.650517E-02   1.650517E-02   1.650517E-02   1.650517E-02   4.149731E-02   4.149731E-02   4.149731E-02   4.149731E-02   4.149731E-02   4.149731E-02   4.149731E-02   3.613352E-02   3.613352E-02   3.613352E-02   3.613352E-02   3.613352E-02   3.613352E-02   3.613352E-02   3.613352E-02   3.613352E-02   3.613352E-02   3.025523E-02   3.025523E-02   3.025523E-02   3.025523E-02   3.025523E-02   3.025523E-02   3.025523E-02   3.025523E-02   3.025523E-02   2.165390E-02   2.165390E-02   2.165390E-02   2.165390E-02   2.165390E-02   2.165390E-02   2.165390E-02   4.045589E-02   4.045589E-02   4.045589E-02   4.045589E-02   4.045589E-02   2.275450E-02   2.275450E-02   2.275450E-02   2.275450E-02   2.046027E-02   2.046027E-02   2.046027E-02   2.645647E-02   2.645647E-02   6.380168E-03   6.380168E-03   1.709746E-02   1.709746E-02   2.358425E-02   1.033786E-02   3.908157E-02   3.908157E-02   2.473943E-02   3.115478E-02   1.531366E-02   1.499132E-02   2.607056E-02   1.289691E-02   1.887299E-02   4.238414E-02   3.704352E-02   2.940587E-02   3.640717E-02   3.570384E-02   6.946199E-02   9.102577E-02   2.057937E-02   3.226864E-02   2.507141E-02   9.893218E-02   8.535346E-02   1.504474E-01   5.978388E-02   4.280163E-02   2.427888E-02   9.451820E-02   7.710967E-02   2.414768E-01   1.314809E-01   1.357063E-01   2.957223E-02   3.356832E-02   4.909710E-02   2.558445E-02   3.007278E-02   4.198899E-02   1.173749E-01   6.406502E-02   2.473771E-01   1.099235E-01   1.125468E-01
   1.612936E-01   4.458096E-02   1.979315E-02   1.674775E-02   3.535162E-02   5.081934E-02   8.651733E-02   4.808402E-02   9.301157E-02   4.455871E-02   6.590102E-02   1.374655E-01   8.915648E-02   5.788104E-02   2.049349E-02   2.438160E-02   1.320204E-02   1.517239E-02   1.081181E-02   7.389712E-03   9.547791E-03   1.047251E-02   9.280916E-03   2.685834E-02   1.737308E-02   1.600470E-02   2.494667E-02   4.177435E-02   5.554820E-02   2.958624E-02   4.158240E-02   1.773219E-01   2.638972E-01   1.736110E-01   1.819814E-01   6.128768E-02   2.352504E-02   2.003698E-02   1.097906E-02   2.057404E-02   1.964231E-02   3.654123E-02   4.626160E-02   2.722795E-02   1.361831E-02   1.465882E-02   1.014008E-02   1.212585E-02   1.037531E-01   2.743483E-02   2.713320E-02   3.131795E-02   2.685643E-02   2.366669E-02   1.939650E-02   1.003967E-02   1.823443E-02   1.520038E-02   1.391517E-02   2.172147E-02   1.200701E-02   5.371614E-03   7.383203E-03   4.457775E-03   7.883083E-03   1.818172E-02   1.958677E-02   1.512173E-02   3.416045E-02   1.552476E-01   1.383247E-01   3.588318E-02   5.371199E-02   1.398724E-01   2.998966E-01   3.717982E-01   1.004632E-01   4.961336E-02   1.046548E-01   6.135576E-02   2.949745E-02   3.397986E-02   3.849661E-02   6.819288E-02   1.086327E-01   4.579355E-02   2.638414E-02   2.170912E-02   8.213158E-02   1.204231E-01   1.204231E-01   9.646186E-02   1.651056E-01   1.651056E-01   1.169636E-01   7.626930E-02   7.626930E-02   1.032993E-01   1.032993E-01   1.032993E-01   5.493279E-02   5.493279E-02   5.493279E-02   2.349046E-02   2.349046E-02   2.349046E-02   2.349046E-02   2.349046E-02   2.741311E-02   2.741311E-02   2.741311E-02   2.741311E-02   2.741311E-02   3.641022E-02   3.641022E-02   3.641022E-02   3.641022E-02   3.641022E-02   3.641022E-02   3.641022E-02   9.916893E-02   9.916893E-02   9.916893E-02   9.916893E-02   9.916893E-02   9.916893E-02   9.916893E-02   9.916893E-02   9.916893E-02   9.916893E-02   4.285337E-02   4.285337E-02   4.285337E-02   4.285337E-02   4.285337E-02   4.285337E-02   4.285337E-02   4.285337E-02   4.285337E-02   2.245503E-02   2.245503E-02   2.245503E-02   2.245503E-02   2.245503E-02   2.245503E-02   2.245503E-02   2.239909E-02   2.239909E-02   2.239909E-02   2.239909E-02   2.239909E-02   2.380365E-02   2.380365E-02   2.380365E-02   2.380365E-02   1.990263E-02   1.990263E-02   1.990263E-02   1.664152E-02   1.664152E-02   5.150777E-03   5.150777E-03   7.207375E-03   7.207375E-03   1.711788E-02   1.047525E-02   2.332451E-02   2.332451E-02   1.244273E-02   2.594477E-02   1.549089E-02   4.902801E-02   2.617907E-02   9.955251E-03   1.279631E-02   3.542484E-02   4.433232E-02   3.886413E-02   3.843625E-02   2.526490E-02   9.021989E-02   5.306572E-02   1.092609E-02   2.242577E-02   2.302522E-02   1.889056E-02   4.617770E-02   1.187631E-01   1.528809E-01   7.574205E-02   3.273879E-02   1.136534E-01   1.247120E-01   1.992357E-01   2.278425E-01   1.370137E-01   3.823219E-02   2.658692E-02   1.772617E-02   5.766387E-02   3.446287E-02   1.093967E-01   7.598706E-02   5.819774E-02   7.047851E-02   9.959428E-02   2.081634E-01
   7.969172E-02   5.516350E-02   8.314603E-03   9.958494E-03   1.894504E-02   5.075720E-02   2.440294E-02   3.263709E-02   1.201734E-01   2.344047E-02   4.982468E-02   8.684511E-02   6.864988E-02   6.890785E-02   4.465736E-02   1.745271E-02   1.100983E-02   1.108267E-02   1.296480E-02   2.118056E-02   1.381165E-02   1.722838E-02   5.135493E-03   1.222378E-02   1.372020E-02   2.414986E-02   2.743445E-02   1.531226E-02   3.045582E-02   4.116154E-02   5.732815E-02   2.439762E-01   5.978627E-01   2.030670E-01   2.111542E-01   1.216268E-01   1.424776E-02   1.823707E-02   9.878388E-03   1.434743E-02   1.183607E-02   1.654535E-02   1.666476E-02   1.466332E-02   9.707530E-03   1.275342E-02   3.535105E-02   8.327361E-03   2.428943E-02   1.794209E-02   4.337485E-02   2.423806E-02   2.259493E-02   3.573656E-02   1.037258E-02   4.116281E-03   1.654319E-02   1.038725E-02   1.215908E-02   1.799592E-02   7.719972E-03   7.224286E-03   3.191468E-03   8.731406E-03   4.612702E-03   1.007373E-02   1.382727E-02   1.609468E-02   3.478194E-02   1.350144E-01   5.143136E-02   4.787678E-02   4.433249E-02   8.264860E-02   3.286138E-01   2.361564E-01   1.284290E-01   9.064275E-02   7.588977E-02   1.111792E-01   3.913243E-02   5.370159E-02   2.458026E-02   4.203416E-02   6.869273E-02   4.438829E-02   2.154985E-02   2.090668E-02   6.092099E-02   7.983305E-02   7.983305E-02   4.732039E-02   3.106896E-02   3.106896E-02   1.233818E-01   6.909095E-02   6.909095E-02   8.383117E-02   8.383117E-02   8.383117E-02   5.098061E-02   5.098061E-02   5.098061E-02   2.934262E-02   2.934262E-02   2.934262E-02   2.934262E-02   2.934262E-02   2.958106E-02   2.958106E-02   2.958106E-02   2.958106E-02   2.958106E-02   3.044405E-02   3.044405E-02   3.044405E-02   3.044405E-02   3.044405E-02   3.044405E-02   3.044405E-02   1.156194E-01   1.156194E-01   1.156194E-01   1.156194E-01   1.156194E-01   1.156194E-01   1.156194E-01   1.156194E-01   1.156194E-01   1.156194E-01   4.376923E-02   4.376923E-02   4.376923E-02   4.376923E-02   4.376923E-02   4.376923E-02   4.376923E-02   4.376923E-02   4.376923E-02   2.871692E-02   2.871692E-02   2.871692E-02   2.871692E-02   2.871692E-02   2.871692E-02   2.871692E-02   2.490428E-02   2.490428E-02   2.490428E-02   2.490428E-02   2.490428E-02   3.292807E-02   3.292807E-02   3.292807E-02   3.292807E-02   2.808842E-02   2.808842E-02   2.808842E-02   1.046191E-02   1.046191E-02   1.171074E-02   1.171074E-02   6.171145E-03   6.171145E-03   8.039114E-03   8.614691E-03   2.177250E-02   2.177250E-02   1.626253E-02   2.945340E-02   3.437302E-02   4.180494E-02   1.306859E-02   2.137792E-02   1.476885E-02   2.986345E-02   3.395006E-02   2.151631E-02   3.140556E-02   2.557053E-02   6.032289E-02   7.387137E-02   2.295504E-02   2.166401E-02   1.489145E-02   1.600203E-02   2.391316E-02   8.691062E-02   2.036075E-01   4.675908E-02   6.943964E-02   2.387785E-01   8.525706E-02   7.040250E-02   1.946853E-01   7.076694E-02   2.222769E-02   1.158295E-02   1.204605E-02   6.106300E-02   5.102406E-02   9.998063E-02   5.660808E-02   7.316832E-02   6.174130E-02   5.726973E-02   4.312366E-02
   3.257119E-02   5.495690E-02   1.078722E-02   1.210062E-02   1.244644E-02   4.227199E-02   9.792316E-03   2.523735E-02   1.102786E-01   2.377976E-02   5.229918E-02   7.564398E-02   5.809013E-02   4.219197E-02   5.320831E-02   9.917866E-03   1.379431E-02   2.455356E-02   1.999852E-02   3.001161E-02   2.888027E-02   2.068439E-02   3.998672E-03   1.657929E-02   1.849569E-02   2.238546E-02   3.334393E-02   3.000792E-02   6.145082E-02   4.397864E-02   5.815949E-02   1.963062E-01   8.113509E-01   2.542711E-01   2.499739E-01   2.153533E-01   9.496679E-03   1.367257E-02   2.803895E-02   3.469005E-02   7.449346E-03   1.042297E-02   1.567839E-02   1.012640E-02   5.648271E-03   1.125536E-02   3.371498E-02   9.965026E-03   1.995784E-02   2.728225E-02   6.243647E-02   4.476890E-02   3.378456E-02   1.860727E-02   1.303997E-02   4.136295E-03   2.308303E-02   7.453929E-03   1.317755E-02   1.377155E-02   1.192153E-02   7.759340E-03   6.625276E-03   1.426570E-02   4.536195E-03   1.084098E-02   1.628288E-02   3.094735E-02   5.165347E-02   4.752601E-02   2.374798E-02   2.925920E-02   4.740704E-02   1.094579E-01   2.235917E-01   1.295035E-01   1.398630E-01   1.978289E-01   6.676674E-02   5.913790E-02   5.847045E-02   5.623067E-02   2.138253E-02   5.069590E-02   5.524452E-02   3.617409E-02   2.959079E-02   4.610855E-02   7.286821E-02   1.737541E-01   1.737541E-01   3.460436E-02   7.678058E-03   7.678058E-03   2.984466E-02   5.281134E-02   5.281134E-02   5.550519E-02   5.550519E-02   5.550519E-02   3.181060E-02   3.181060E-02   3.181060E-02   1.998241E-02   1.998241E-02   1.998241E-02   1.998241E-02   1.998241E-02   2.427882E-02   2.427882E-02   2.427882E-02   2.427882E-02   2.427882E-02   2.430178E-02   2.430178E-02   2.430178E-02   2.430178E-02   2.430178E-02   2.430178E-02   2.430178E-02   8.443681E-02   8.443681E-02   8.443681E-02   8.443681E-02   8.443681E-02   8.443681E-02   8.443681E-02   8.443681E-02   8.443681E-02   8.443681E-02   4.168426E-02   4.168426E-02   4.168426E-02   4.168426E-02   4.168426E-02   4.168426E-02   4.168426E-02   4.168426E-02   4.168426E-02   2.753149E-02   2.753149E-02   2.753149E-02   2.753149E-02   2.753149E-02   2.753149E-02   2.753149E-02   2.276297E-02   2.276297E-02   2.276297E-02   2.276297E-02   2.276297E-02   1.595668E-02   1.595668E-02   1.595668E-02   1.595668E-02   1.380256E-02   1.380256E-02   1.380256E-02   1.584274E-02   1.584274E-02   9.771887E-03   9.771887E-03   6.702198E-03   6.702198E-03   8.832512E-03   6.998506E-03   1.533498E-02   1.533498E-02   3.991859E-02   4.136101E-02   3.305340E-02   5.394037E-02   1.922227E-02   1.476285E-02   1.678555E-02   1.016360E-02   1.724650E-02   1.217603E-02   2.748542E-02   6.862479E-02   2.063705E-02   4.182701E-02   1.892471E-02   1.967508E-02   6.136869E-03   6.242280E-03   1.484575E-02   3.467654E-02   6.286072E-02   1.849481E-02   4.970056E-02   1.347887E-01   1.243955E-01   3.651579E-02   6.234944E-02   4.501387E-02   8.974178E-03   1.289126E-02   1.464686E-02   4.714058E-02   9.035519E-02   1.513476E-01   5.679008E-02   6.573639E-02   5.794706E-02   4.750272E-02   3.672391E-02
   1.158676E-02   2.059326E-02   1.117419E-02   2.106321E-02   3.255937E-02   2.374491E-02   9.389689E-03   1.423214E-02   7.188375E-02   4.210521E-02   3.367126E-02   4.224498E-02   6.356870E-02   4.104823E-02   4.738530E-02   2.060250E-02   1.390570E-02   3.177113E-02   1.725399E-02   9.201331E-02   2.810386E-02   2.906997E-02   1.642563E-02   2.157857E-02   1.658464E-02   2.427331E-02   1.589907E-02   3.597123E-02   4.248024E-02   5.607914E-02   8.271928E-02   1.223956E-01   2.346748E-01   1.765938E-01   2.042314E-01   2.504290E-01   3.458413E-02   3.512033E-02   2.185592E-02   2.529626E-02   4.837280E-03   1.064642E-02   8.432742E-03   9.732660E-03   6.628832E-03   1.137901E-02   4.989059E-02   1.283693E-02   3.205526E-02   4.450677E-02   5.675725E-02   4.133938E-02   2.936795E-02   2.597534E-02   1.364324E-02   9.751254E-03   2.619734E-02   1.274450E-02   2.765999E-02   1.165144E-02   1.395514E-02   1.091069E-02   1.151074E-02   1.374213E-02   4.867089E-03   4.715460E-03   9.679766E-03   3.597191E-02   3.297502E-02   2.611312E-02   3.438242E-02   6.361458E-02   1.179192E-01   1.869919E-01   3.398341E-01   2.400519E-01   1.137880E-01   1.428256E-01   6.994599E-02   6.888896E-02   2.075602E-02   2.677072E-02   1.755711E-02   4.334366E-02   2.768144E-02   3.129323E-02   1.104141E-02   3.130057E-02   3.867514E-02   7.529470E-02   7.529470E-02   2.958702E-02   1.011631E-02   1.011631E-02   3.936037E-02   4.134949E-02   4.134949E-02   5.024545E-02   5.024545E-02   5.024545E-02   4.410572E-02   4.410572E-02   4.410572E-02   1.473552E-02   1.473552E-02   1.473552E-02   1.473552E-02   1.473552E-02   1.496040E-02   1.496040E-02   1.496040E-02   1.496040E-02   1.496040E-02   1.412192E-02   1.412192E-02   1.412192E-02   1.412192E-02   1.412192E-02   1.412192E-02   1.412192E-02   7.155487E-02   7.155487E-02   7.155487E-02   7.155487E-02   7.155487E-02   7.155487E-02   7.155487E-02   7.155487E-02   7.155487E-02   7.155487E-02   1.508021E-02   1.508021E-02   1.508021E-02   1.508021E-02   1.508021E-02   1.508021E-02   1.508021E-02   1.508021E-02   1.508021E-02   2.072225E-02   2.072225E-02   2.072225E-02   2.072225E-02   2.072225E-02   2.072225E-02   2.072225E-02   1.396250E-02   1.396250E-02   1.396250E-02   1.396250E-02   1.396250E-02   1.930404E-02   1.930404E-02   1.930404E-02   1.930404E-02   1.926330E-02   1.926330E-02   1.926330E-02   5.986757E-03   5.986757E-03   1.403989E-02   1.403989E-02   9.269597E-03   9.269597E-03   6.928349E-03   7.439565E-03   1.427501E-02   1.427501E-02   4.346247E-02   3.916564E-02   2.808976E-02   4.470195E-02   2.854781E-02   1.425270E-02   1.806771E-02   3.586856E-03   7.850342E-03   2.470848E-02   3.001249E-02   3.055755E-02   1.765735E-02   2.511584E-02   2.009568E-02   2.177140E-02   8.052701E-03   4.053879E-03   8.336059E-03   1.576919E-02   3.413612E-02   6.328555E-02   3.909317E-02   6.636455E-02   1.555223E-01   2.867515E-02   4.132386E-02   3.223207E-02   1.787741E-02   1.018010E-02   1.118004E-02   5.040812E-02   9.600417E-02   6.242085E-02   7.879207E-02   4.057268E-02   3.089784E-02   1.902959E-02   2.541517E-02