# LPF package for  MODFLOW-2005, generated by Flopy.
        53    -1E+30         0  
         1
         0
   0.000000E+00
         0
         0
INTERNAL               1 (207E15.6) -1 #hk layer 1                    
   4.740378E-02   4.284188E-02   4.820717E-02   1.606777E-02   9.556435E-03   1.502110E-02   4.273789E-02   2.015614E-02   5.143898E-02   1.557742E-01   7.129335E-02   1.773290E-01   5.426301E-02   5.112829E-02   2.443151E-02   9.406170E-02   2.937483E-02   2.607735E-02   1.593438E-02   2.268795E-02   9.788129E-03   1.765508E-02   9.868843E-03   2.572608E-02   1.034991E-01   1.589720E-01   1.044472E-01   1.104312E-01   3.551853E-02   2.760325E-02   4.565399E-02   8.517324E-02   4.419880E-02   5.668296E-02   2.668914E-02   2.049616E-02   1.282779E-02   2.106282E-02   4.725304E-02   8.059181E-02   9.020457E-02   9.360541E-02   3.926916E-02   1.977876E-02   2.408619E-02   7.970715E-02   8.720428E-02   1.205963E-01   2.566104E-01   1.150525E-01   9.196319E-02   3.825077E-02   6.380513E-02   1.061605E-01   3.941857E-01   3.781792E-01   1.784261E-01   4.353865E-02   2.773252E-02   4.086920E-02   1.549602E-02   4.536806E-02   4.466058E-02   5.730318E-02   5.331392E-02   3.220795E-02   4.867522E-02   3.957877E-02   1.210636E-02   1.016831E-02   1.076150E-02   5.913517E-03   5.410552E-03   5.354260E-03   2.301433E-02   2.304142E-02   5.860496E-02   3.726793E-02   8.957720E-02   1.070366E-01   6.423916E-02   1.005131E-01   4.748226E-02   4.234151E-02   2.617847E-02   3.576356E-02   3.981147E-02   5.445486E-02   4.622749E-02   9.142169E-02   9.142169E-02   1.263711E-01   3.988140E-02   3.988140E-02   6.864089E-02   3.493784E-02   3.493784E-02   2.589404E-02   2.589404E-02   2.589404E-02   5.277461E-02   5.277461E-02   5.277461E-02   6.930727E-02   6.930727E-02   6.930727E-02   6.930727E-02   6.930727E-02   1.128456E-01   1.128456E-01   1.128456E-01   1.128456E-01   1.128456E-01   1.220825E-01   1.220825E-01   1.220825E-01   1.220825E-01   1.220825E-01   1.220825E-01   1.220825E-01   1.747225E-01   1.747225E-01   1.747225E-01   1.747225E-01   1.747225E-01   1.747225E-01   1.747225E-01   1.747225E-01   1.747225E-01   1.747225E-01   1.612222E-01   1.612222E-01   1.612222E-01   1.612222E-01   1.612222E-01   1.612222E-01   1.612222E-01   1.612222E-01   1.612222E-01   2.213222E-01   2.213222E-01   2.213222E-01   2.213222E-01   2.213222E-01   2.213222E-01   2.213222E-01   3.751121E-01   3.751121E-01   3.751121E-01   3.751121E-01   3.751121E-01   1.715194E-01   1.715194E-01   1.715194E-01   1.715194E-01   1.245742E-01   1.245742E-01   1.245742E-01   2.451323E-02   2.451323E-02   2.631164E-02   2.631164E-02   2.559417E-02   2.559417E-02   1.981406E-02   2.639578E-02   6.406740E-02   6.406740E-02   9.257819E-02   3.646713E-01   2.359330E-01   9.939395E-02   1.221087E-01   4.294626E-02   1.690476E-02   1.288353E-02   4.975133E-03   7.557760E-03   1.011628E-02   2.684339E-02   8.068736E-02   3.114127E-02   6.572340E-02   1.540320E-02   1.596789E-02   5.804911E-02   3.959373E-02   1.048497E-01   1.385741E-01   2.128570E-01   4.174110E-01   1.590600E-01   5.850684E-02   9.447414E-02   6.934942E-02   3.018085E-02   3.408168E-02   6.680700E-02   3.297345E-02   1.022312E-01   7.458737E-02   4.607106E-02   5.952331E-03   1.987391E-02   8.236563E-03   1.001511E-02   3.835268E-02
   5.871908E-02   6.150109E-02   7.678291E-02   2.230133E-02   1.480233E-02   3.098231E-02   2.430691E-02   7.236397E-02   8.341453E-02   9.373067E-02   7.949545E-02   1.384775E-01   5.491001E-02   1.740628E-02   1.722357E-02   4.511145E-02   3.617024E-02   1.931808E-02   1.002404E-02   2.132840E-02   1.052729E-02   1.675938E-02   7.302387E-03   1.593903E-02   5.190999E-02   1.085475E-01   1.388727E-01   1.292965E-01   3.755442E-02   3.489503E-02   1.857771E-02   3.221071E-02   2.529821E-02   5.422731E-02   2.897921E-02   4.256419E-02   2.633104E-02   2.492645E-02   1.347433E-02   3.448382E-02   8.590226E-02   6.144324E-02   1.399518E-02   1.713743E-02   3.034593E-02   7.230528E-02   9.494312E-02   7.690159E-02   1.316709E-01   9.315017E-02   5.480103E-02   3.931465E-02   6.466669E-02   1.640622E-01   1.866339E-01   9.505036E-02   1.524058E-01   1.950779E-02   3.408830E-02   2.644887E-02   1.933790E-02   2.922864E-02   3.879552E-02   1.251608E-01   3.623689E-02   3.546344E-02   5.340717E-02   2.467574E-02   1.261538E-02   1.110050E-02   1.165495E-02   5.116647E-03   4.773748E-03   3.877510E-03   4.830163E-02   4.238107E-02   6.197575E-02   6.005489E-02   9.770153E-02   6.486954E-02   4.161830E-02   1.771642E-02   1.915405E-02   2.822587E-02   1.032929E-02   2.786476E-02   2.429505E-02   7.391477E-02   9.879246E-02   4.776832E-02   4.776832E-02   1.308951E-01   3.643200E-02   3.643200E-02   3.772921E-02   2.045233E-02   2.045233E-02   2.190523E-02   2.190523E-02   2.190523E-02   3.303801E-02   3.303801E-02   3.303801E-02   7.305919E-02   7.305919E-02   7.305919E-02   7.305919E-02   7.305919E-02   8.918907E-02   8.918907E-02   8.918907E-02   8.918907E-02   8.918907E-02   6.937493E-02   6.937493E-02   6.937493E-02   6.937493E-02   6.937493E-02   6.937493E-02   6.937493E-02   7.695708E-02   7.695708E-02   7.695708E-02   7.695708E-02   7.695708E-02   7.695708E-02   7.695708E-02   7.695708E-02   7.695708E-02   7.695708E-02   1.456919E-01   1.456919E-01   1.456919E-01   1.456919E-01   1.456919E-01   1.456919E-01   1.456919E-01   1.456919E-01   1.456919E-01   4.911251E-01   4.911251E-01   4.911251E-01   4.911251E-01   4.911251E-01   4.911251E-01   4.911251E-01   4.504237E-01   4.504237E-01   4.504237E-01   4.504237E-01   4.504237E-01   1.219790E-01   1.219790E-01   1.219790E-01   1.219790E-01   9.722623E-02   9.722623E-02   9.722623E-02   2.506840E-02   2.506840E-02   2.775869E-02   2.775869E-02   1.300594E-02   1.300594E-02   2.044228E-02   2.124068E-02   6.392302E-02   6.392302E-02   1.650718E-01   5.263164E-01   3.027516E-01   1.935392E-01   1.275720E-01   3.267021E-02   1.978126E-02   7.886734E-03   6.128435E-03   4.617111E-03   1.134239E-02   2.377668E-02   4.463447E-02   5.284133E-02   2.309811E-02   1.727655E-02   1.853560E-02   1.763046E-02   4.274441E-02   6.085395E-02   5.441893E-02   1.317477E-01   4.615837E-01   2.034003E-01   7.651755E-02   8.943938E-02   9.300043E-02   5.014974E-02   2.833669E-02   1.086855E-01   4.740789E-02   1.214762E-01   1.066754E-01   5.930976E-02   1.678216E-02   1.937328E-02   6.148544E-03   1.058413E-02   3.737070E-02
   5.128020E-02   3.593142E-02   4.200973E-02   1.790769E-02   1.733578E-02   4.311629E-02   3.363589E-02   7.368186E-02   1.215415E-01   2.745682E-02   1.023923E-01   7.294435E-02   3.689803E-02   1.477219E-02   1.731638E-02   9.879222E-02   2.118578E-02   6.787490E-03   7.257617E-03   2.219453E-02   1.557114E-02   1.255796E-02   1.200626E-02   3.255789E-02   7.053301E-02   1.150437E-01   1.365333E-01   7.331368E-02   9.222785E-02   2.786737E-02   1.705634E-02   1.763789E-02   2.246545E-02   4.498349E-02   3.636160E-02   4.274329E-02   7.449362E-02   3.012944E-02   1.914331E-02   4.398960E-02   9.751788E-02   7.385517E-02   2.435010E-02   1.053691E-02   1.480229E-02   7.996751E-02   3.303972E-02   9.753522E-02   2.752767E-01   1.732854E-01   5.395133E-02   6.521183E-02   1.126797E-01   3.093765E-01   1.634225E-01   6.564333E-02   1.802329E-01   4.957839E-02   4.336615E-02   1.815014E-02   1.604334E-02   2.110993E-02   5.487059E-02   5.343279E-02   5.265544E-02   9.308711E-02   9.230181E-02   1.110443E-02   7.015801E-03   9.603030E-03   2.325337E-02   1.117435E-02   4.844494E-03   8.908039E-03   2.164176E-02   5.684830E-02   1.179903E-01   8.962984E-02   9.172279E-02   7.768363E-02   6.267150E-02   1.753042E-02   1.276185E-02   7.181973E-03   7.411025E-03   3.019088E-02   2.658937E-02   6.715881E-02   7.636596E-02   4.758914E-02   4.758914E-02   1.264526E-01   4.852628E-02   4.852628E-02   3.054076E-02   2.197547E-02   2.197547E-02   8.027693E-03   8.027693E-03   8.027693E-03   1.315613E-02   1.315613E-02   1.315613E-02   3.644151E-02   3.644151E-02   3.644151E-02   3.644151E-02   3.644151E-02   1.758075E-01   1.758075E-01   1.758075E-01   1.758075E-01   1.758075E-01   1.138377E-01   1.138377E-01   1.138377E-01   1.138377E-01   1.138377E-01   1.138377E-01   1.138377E-01   5.490302E-02   5.490302E-02   5.490302E-02   5.490302E-02   5.490302E-02   5.490302E-02   5.490302E-02   5.490302E-02   5.490302E-02   5.490302E-02   1.148074E-01   1.148074E-01   1.148074E-01   1.148074E-01   1.148074E-01   1.148074E-01   1.148074E-01   1.148074E-01   1.148074E-01   5.364924E-01   5.364924E-01   5.364924E-01   5.364924E-01   5.364924E-01   5.364924E-01   5.364924E-01   6.044706E-01   6.044706E-01   6.044706E-01   6.044706E-01   6.044706E-01   7.596373E-02   7.596373E-02   7.596373E-02   7.596373E-02   1.174308E-01   1.174308E-01   1.174308E-01   2.721662E-02   2.721662E-02   1.791703E-02   1.791703E-02   1.765685E-02   1.765685E-02   2.022801E-02   2.434018E-02   2.972945E-02   2.972945E-02   8.319774E-02   1.655812E-01   2.952816E-01   5.198647E-02   5.829395E-02   3.426461E-02   2.390347E-02   1.651936E-02   1.222808E-02   5.400964E-03   1.811096E-02   3.213384E-02   3.788800E-02   3.293775E-02   2.259861E-02   8.959241E-03   1.530132E-02   2.700869E-02   5.226969E-02   6.081354E-02   3.319423E-02   2.820191E-01   6.383792E-01   1.619643E-01   8.228949E-02   1.618873E-01   1.143630E-01   5.552088E-02   7.141276E-02   8.172876E-02   1.147351E-01   2.379972E-01   1.180393E-01   8.652335E-02   2.244735E-02   2.338315E-02   2.425134E-02   1.164874E-02   2.432322E-02
   7.282575E-02   5.446580E-02   6.611867E-02   2.758243E-02   1.157219E-02   3.289961E-02   5.422856E-02   7.134078E-02   1.473053E-01   5.219247E-02   1.004751E-01   2.632749E-02   1.612417E-02   1.549270E-02   2.822663E-02   3.602955E-02   3.275407E-02   7.421711E-03   5.649544E-03   1.747241E-02   1.522171E-02   2.502657E-02   5.692215E-02   6.005227E-02   4.499179E-02   7.803841E-02   6.703562E-02   1.039297E-01   8.729429E-02   4.648779E-02   1.954772E-02   2.088398E-02   2.007401E-02   4.055914E-02   4.144838E-02   6.811626E-02   9.326172E-02   3.534237E-02   2.512037E-02   5.859522E-02   1.510595E-01   3.510070E-02   2.610078E-02   1.858647E-02   1.627359E-02   4.591449E-02   4.208175E-02   8.890150E-02   1.397095E-01   9.213389E-02   3.262072E-02   7.810502E-02   1.366392E-01   5.028878E-01   2.075582E-01   1.347556E-01   9.434418E-02   9.689297E-02   8.595753E-02   2.086914E-02   1.880770E-02   1.842913E-02   3.816143E-02   5.182762E-02   4.837930E-02   5.972639E-02   2.117544E-02   9.747375E-03   1.509901E-02   1.176282E-02   2.167888E-02   4.059409E-02   7.443189E-03   1.509412E-02   2.765708E-02   4.441214E-02   9.299762E-02   7.974875E-02   5.316532E-02   3.841582E-02   3.719578E-02   1.797044E-02   1.837744E-02   7.573760E-03   2.257680E-02   2.826961E-02   3.026584E-02   7.248995E-02   4.443704E-02   3.935381E-02   3.935381E-02   7.438374E-02   5.433009E-02   5.433009E-02   4.314882E-02   4.018167E-02   4.018167E-02   1.212020E-02   1.212020E-02   1.212020E-02   1.810671E-02   1.810671E-02   1.810671E-02   3.889591E-02   3.889591E-02   3.889591E-02   3.889591E-02   3.889591E-02   6.657494E-02   6.657494E-02   6.657494E-02   6.657494E-02   6.657494E-02   1.090236E-01   1.090236E-01   1.090236E-01   1.090236E-01   1.090236E-01   1.090236E-01   1.090236E-01   8.814062E-02   8.814062E-02   8.814062E-02   8.814062E-02   8.814062E-02   8.814062E-02   8.814062E-02   8.814062E-02   8.814062E-02   8.814062E-02   1.011102E-01   1.011102E-01   1.011102E-01   1.011102E-01   1.011102E-01   1.011102E-01   1.011102E-01   1.011102E-01   1.011102E-01   2.047539E-01   2.047539E-01   2.047539E-01   2.047539E-01   2.047539E-01   2.047539E-01   2.047539E-01   3.219690E-01   3.219690E-01   3.219690E-01   3.219690E-01   3.219690E-01   1.509281E-01   1.509281E-01   1.509281E-01   1.509281E-01   8.475575E-02   8.475575E-02   8.475575E-02   2.475017E-02   2.475017E-02   1.863214E-02   1.863214E-02   2.344867E-02   2.344867E-02   2.419150E-02   1.828664E-02   3.995673E-02   3.995673E-02   1.060233E-01   5.655868E-02   1.832417E-01   1.150317E-01   2.745809E-02   2.905995E-02   2.951185E-02   3.039790E-02   6.211468E-03   1.232224E-02   2.913917E-02   2.341249E-02   3.471686E-02   5.187803E-02   2.508721E-02   1.190466E-02   2.083449E-02   3.618382E-02   5.161585E-02   8.541717E-02   1.806098E-02   9.449132E-02   4.421630E-01   3.020215E-01   2.169919E-01   1.429309E-01   2.735104E-01   5.555451E-02   7.363485E-02   5.867781E-02   2.132970E-01   2.332926E-01   1.409961E-01   1.538940E-01   6.454351E-02   2.166915E-02   3.363692E-02   2.360510E-02   1.991229E-02
   1.180902E-01   8.039793E-02   5.528648E-02   3.357125E-02   7.331941E-02   5.362006E-02   3.797236E-02   5.723999E-02   1.617915E-01   1.425669E-01   1.329220E-01   3.527999E-02   9.693184E-03   4.906532E-03   3.098268E-02   9.847146E-02   4.379608E-02   7.321049E-03   7.437379E-03   1.372705E-02   3.170156E-02   2.778433E-02   5.199897E-02   5.530589E-02   2.123791E-02   1.896354E-02   2.407875E-02   4.546160E-02   3.839197E-02   6.684177E-02   5.385892E-02   5.341854E-02   2.554355E-02   3.405146E-02   8.973774E-02   1.833752E-01   1.596383E-01   5.334485E-02   7.380345E-02   1.223189E-01   2.389370E-01   1.486664E-01   2.612880E-02   3.282487E-02   1.741817E-02   2.855983E-02   4.661474E-02   5.757084E-02   1.374076E-01   7.158406E-02   6.825177E-02   8.352105E-02   7.688762E-02   4.881906E-01   2.512037E-01   1.424996E-01   1.145639E-01   1.517733E-01   8.993973E-02   1.481141E-02   2.352677E-02   1.790338E-02   4.079130E-02   3.996495E-02   5.961383E-02   2.723770E-02   1.403910E-02   3.625710E-03   1.428077E-02   2.181839E-02   1.008199E-01   3.544894E-02   1.720012E-02   1.334629E-02   2.251356E-02   3.066152E-02   7.651241E-02   6.788290E-02   5.561230E-02   6.757555E-02   3.359035E-02   1.002847E-02   5.208968E-03   1.004720E-02   1.614773E-02   2.560433E-02   5.534759E-02   9.867456E-02   7.476319E-02   4.507748E-02   4.507748E-02   4.791521E-02   3.526952E-02   3.526952E-02   3.368383E-02   1.772753E-02   1.772753E-02   1.346368E-02   1.346368E-02   1.346368E-02   2.395327E-02   2.395327E-02   2.395327E-02   1.847848E-02   1.847848E-02   1.847848E-02   1.847848E-02   1.847848E-02   3.190932E-02   3.190932E-02   3.190932E-02   3.190932E-02   3.190932E-02   1.058954E-01   1.058954E-01   1.058954E-01   1.058954E-01   1.058954E-01   1.058954E-01   1.058954E-01   9.493850E-02   9.493850E-02   9.493850E-02   9.493850E-02   9.493850E-02   9.493850E-02   9.493850E-02   9.493850E-02   9.493850E-02   9.493850E-02   1.033463E-01   1.033463E-01   1.033463E-01   1.033463E-01   1.033463E-01   1.033463E-01   1.033463E-01   1.033463E-01   1.033463E-01   1.398200E-01   1.398200E-01   1.398200E-01   1.398200E-01   1.398200E-01   1.398200E-01   1.398200E-01   2.453437E-01   2.453437E-01   2.453437E-01   2.453437E-01   2.453437E-01   1.895935E-01   1.895935E-01   1.895935E-01   1.895935E-01   1.092026E-01   1.092026E-01   1.092026E-01   4.893099E-02   4.893099E-02   3.068123E-02   3.068123E-02   2.131317E-02   2.131317E-02   2.165320E-02   2.310504E-02   5.501070E-02   5.501070E-02   2.529610E-01   7.714035E-02   2.480525E-01   4.889101E-02   2.203199E-02   2.671392E-02   2.199494E-02   5.232914E-02   1.554245E-02   1.401871E-02   3.889279E-02   2.543641E-02   6.176485E-02   8.554821E-02   3.243750E-02   1.409412E-02   2.221620E-02   2.718535E-02   5.322694E-02   6.533228E-02   1.419158E-02   1.359855E-01   2.053706E-01   1.507387E-01   3.668039E-01   1.249999E-01   1.452962E-01   8.662238E-02   1.786909E-01   1.322501E-01   2.349842E-01   2.501674E-01   2.580635E-01   1.387733E-01   6.889134E-02   3.938718E-02   2.071864E-02   1.692095E-02   2.657136E-02
   9.249786E-02   5.556893E-02   4.788757E-02   2.765827E-02   1.037828E-01   1.059227E-01   5.012003E-02   8.371040E-02   2.362031E-01   1.119808E-01   8.645155E-02   3.744743E-02   8.683630E-03   9.255734E-03   1.944051E-02   7.148414E-02   4.610470E-02   2.590788E-02   1.050547E-02   3.058779E-02   5.282106E-02   9.286457E-02   1.550005E-01   3.311586E-02   1.044700E-02   1.063512E-02   1.040677E-02   1.939334E-02   2.555978E-02   5.940775E-02   3.495352E-02   6.141881E-02   2.836235E-02   3.340052E-02   1.040819E-01   1.758830E-01   2.551545E-01   7.116251E-02   9.067452E-02   2.526858E-01   1.582586E-01   1.043280E-01   6.433409E-02   2.852672E-02   1.724092E-02   3.497601E-02   9.193426E-02   5.825050E-02   6.444526E-02   8.726718E-02   3.905876E-02   7.752965E-02   9.974603E-02   3.941273E-01   3.132665E-01   1.128446E-01   1.068278E-01   1.550769E-01   1.030112E-01   4.653210E-02   4.432831E-02   2.190234E-02   4.026462E-02   3.295927E-02   4.397362E-02   3.043093E-02   1.275894E-02   4.554553E-03   2.711248E-02   4.379440E-02   2.519913E-01   5.023441E-02   3.995016E-02   3.553220E-02   4.711612E-02   2.628272E-02   8.468495E-02   1.286649E-01   9.936544E-02   6.358106E-02   3.602585E-02   9.772564E-03   4.712021E-03   1.021678E-02   1.545299E-02   2.521203E-02   2.238354E-02   1.148601E-01   6.400472E-02   7.722754E-02   7.722754E-02   4.061732E-02   4.332871E-02   4.332871E-02   1.654015E-02   2.103878E-02   2.103878E-02   1.844267E-02   1.844267E-02   1.844267E-02   1.873440E-02   1.873440E-02   1.873440E-02   6.397548E-02   6.397548E-02   6.397548E-02   6.397548E-02   6.397548E-02   5.445250E-02   5.445250E-02   5.445250E-02   5.445250E-02   5.445250E-02   8.045535E-02   8.045535E-02   8.045535E-02   8.045535E-02   8.045535E-02   8.045535E-02   8.045535E-02   1.063038E-01   1.063038E-01   1.063038E-01   1.063038E-01   1.063038E-01   1.063038E-01   1.063038E-01   1.063038E-01   1.063038E-01   1.063038E-01   9.299047E-02   9.299047E-02   9.299047E-02   9.299047E-02   9.299047E-02   9.299047E-02   9.299047E-02   9.299047E-02   9.299047E-02   1.529503E-01   1.529503E-01   1.529503E-01   1.529503E-01   1.529503E-01   1.529503E-01   1.529503E-01   6.220996E-02   6.220996E-02   6.220996E-02   6.220996E-02   6.220996E-02   1.197999E-01   1.197999E-01   1.197999E-01   1.197999E-01   4.714458E-02   4.714458E-02   4.714458E-02   8.679850E-02   8.679850E-02   7.139692E-02   7.139692E-02   3.107843E-02   3.107843E-02   2.902198E-02   3.712625E-02   3.533623E-02   3.533623E-02   2.880455E-01   1.007895E-01   2.088702E-01   7.080955E-02   1.949966E-02   1.829149E-02   3.210479E-02   4.887994E-02   1.629155E-02   1.508940E-02   5.599130E-02   4.531645E-02   3.282650E-02   9.437343E-02   4.380540E-02   6.146738E-02   3.072521E-02   2.417814E-02   6.593063E-02   7.706546E-02   2.476770E-02   1.286754E-01   2.161425E-01   1.300504E-01   3.738375E-01   1.412780E-01   7.918882E-02   5.872454E-02   1.596344E-01   1.236719E-01   1.616667E-01   2.507110E-01   2.548515E-01   1.564895E-01   1.087065E-01   2.825574E-02   2.505660E-02   3.335567E-02   3.741018E-02
   9.238482E-02   4.201322E-02   5.158709E-02   6.348740E-02   1.737349E-01   2.212528E-01   5.168761E-02   7.957660E-02   1.190457E-01   5.383548E-02   6.950363E-02   6.410114E-02   1.561923E-02   2.561104E-02   1.292208E-02   4.164619E-02   4.371812E-02   2.350574E-02   2.629697E-02   3.784228E-02   4.526797E-02   1.147400E-01   6.871790E-02   1.785829E-02   4.408263E-03   3.406230E-03   1.691525E-02   2.753616E-02   1.420858E-02   5.599226E-02   5.626603E-02   9.849512E-02   4.688437E-02   9.373814E-02   1.351178E-01   1.593213E-01   1.953398E-01   2.065670E-01   1.453327E-01   2.158497E-01   3.221149E-01   9.277242E-02   3.495326E-02   1.092393E-02   3.159970E-02   7.354055E-02   6.457108E-02   2.765412E-02   3.385341E-02   7.358715E-02   4.077171E-02   6.136255E-02   1.804858E-01   2.433960E-01   1.706066E-01   1.636089E-01   1.178886E-01   9.113541E-02   6.031140E-02   7.447029E-02   3.108958E-02   1.976177E-02   4.737287E-02   6.080309E-02   5.913749E-02   3.645970E-02   1.830891E-02   1.234705E-02   2.533885E-02   4.456555E-02   2.601055E-01   1.357630E-01   8.226381E-02   5.064211E-02   5.050040E-02   4.128549E-02   1.524683E-01   1.527731E-01   5.764042E-02   3.843468E-02   2.145139E-02   1.612026E-02   8.785986E-03   1.388143E-02   3.336143E-02   3.381967E-02   2.684089E-02   1.061898E-01   2.925638E-02   1.013400E-01   1.013400E-01   5.765888E-02   3.959622E-02   3.959622E-02   1.717801E-02   1.440138E-02   1.440138E-02   3.713263E-02   3.713263E-02   3.713263E-02   2.776374E-02   2.776374E-02   2.776374E-02   2.365552E-02   2.365552E-02   2.365552E-02   2.365552E-02   2.365552E-02   4.431969E-02   4.431969E-02   4.431969E-02   4.431969E-02   4.431969E-02   4.907393E-02   4.907393E-02   4.907393E-02   4.907393E-02   4.907393E-02   4.907393E-02   4.907393E-02   5.023901E-02   5.023901E-02   5.023901E-02   5.023901E-02   5.023901E-02   5.023901E-02   5.023901E-02   5.023901E-02   5.023901E-02   5.023901E-02   9.895165E-02   9.895165E-02   9.895165E-02   9.895165E-02   9.895165E-02   9.895165E-02   9.895165E-02   9.895165E-02   9.895165E-02   7.536016E-02   7.536016E-02   7.536016E-02   7.536016E-02   7.536016E-02   7.536016E-02   7.536016E-02   7.170223E-02   7.170223E-02   7.170223E-02   7.170223E-02   7.170223E-02   9.854028E-02   9.854028E-02   9.854028E-02   9.854028E-02   9.771737E-02   9.771737E-02   9.771737E-02   1.007152E-01   1.007152E-01   4.776401E-02   4.776401E-02   4.351410E-02   4.351410E-02   4.116985E-02   2.478244E-02   1.021917E-01   1.021917E-01   1.244205E-01   1.650444E-01   2.231819E-01   6.222309E-02   4.139803E-02   1.466205E-02   4.837827E-02   3.326698E-02   2.612158E-02   2.943213E-02   2.814839E-02   4.953232E-02   2.198464E-02   6.338515E-02   1.979015E-02   6.494170E-02   5.132907E-02   3.160731E-02   6.714194E-02   7.133779E-02   8.795850E-02   1.142590E-01   2.823966E-01   2.464014E-01   2.746532E-01   2.329275E-01   1.120087E-01   1.338210E-01   2.194321E-01   1.042172E-01   2.250626E-01   1.343719E-01   2.220013E-01   1.267112E-01   7.238456E-02   2.645004E-02   2.198888E-02   2.566187E-02   3.190652E-02
   4.560718E-02   3.061496E-02   1.287132E-02   7.855696E-02   8.210924E-02   9.515852E-02   7.398635E-02   8.520472E-02   7.453870E-02   5.805679E-02   6.497889E-02   3.248588E-02   1.614290E-02   2.873352E-02   3.301857E-02   6.096995E-02   4.929321E-02   3.139346E-02   2.975565E-02   3.686009E-02   6.175585E-02   6.851713E-02   4.283262E-02   1.496646E-02   2.841452E-03   3.281553E-03   7.024548E-03   1.308336E-02   1.405948E-02   3.209981E-02   4.430886E-02   5.756269E-02   6.443022E-02   2.060187E-01   2.470687E-01   2.444541E-01   2.814819E-01   2.077623E-01   7.323886E-02   1.165942E-01   3.491985E-01   6.453823E-02   2.371895E-02   1.901145E-02   3.309617E-02   5.111137E-02   4.788006E-02   2.916631E-02   6.138539E-02   3.997858E-02   3.946993E-02   3.463458E-02   9.730919E-02   1.840524E-01   9.485639E-02   1.585540E-01   1.898599E-01   1.186940E-01   3.915025E-02   8.413904E-02   4.115650E-02   4.149574E-02   3.950774E-02   3.410458E-02   5.523181E-02   5.133706E-02   8.754723E-03   4.275247E-02   3.150568E-02   5.901723E-02   1.986045E-01   6.052286E-02   1.003910E-01   8.941057E-02   5.850830E-02   7.997455E-02   2.101914E-01   1.937763E-01   8.537775E-02   7.343441E-02   1.917120E-02   8.783914E-03   1.411872E-02   1.242803E-02   7.686826E-02   3.864627E-02   4.211229E-02   5.983390E-02   3.834539E-02   3.146255E-02   3.146255E-02   8.517036E-02   9.757390E-02   9.757390E-02   4.117069E-02   1.873068E-02   1.873068E-02   4.249416E-02   4.249416E-02   4.249416E-02   4.713939E-02   4.713939E-02   4.713939E-02   2.295957E-02   2.295957E-02   2.295957E-02   2.295957E-02   2.295957E-02   4.450686E-02   4.450686E-02   4.450686E-02   4.450686E-02   4.450686E-02   5.380590E-02   5.380590E-02   5.380590E-02   5.380590E-02   5.380590E-02   5.380590E-02   5.380590E-02   9.710760E-02   9.710760E-02   9.710760E-02   9.710760E-02   9.710760E-02   9.710760E-02   9.710760E-02   9.710760E-02   9.710760E-02   9.710760E-02   8.430237E-02   8.430237E-02   8.430237E-02   8.430237E-02   8.430237E-02   8.430237E-02   8.430237E-02   8.430237E-02   8.430237E-02   5.697103E-02   5.697103E-02   5.697103E-02   5.697103E-02   5.697103E-02   5.697103E-02   5.697103E-02   7.045595E-02   7.045595E-02   7.045595E-02   7.045595E-02   7.045595E-02   5.979048E-02   5.979048E-02   5.979048E-02   5.979048E-02   8.515243E-02   8.515243E-02   8.515243E-02   8.716847E-02   8.716847E-02   7.691091E-02   7.691091E-02   5.426304E-02   5.426304E-02   3.484843E-02   4.932861E-02   3.636737E-02   3.636737E-02   1.337508E-01   1.122193E-01   2.502900E-01   4.003614E-02   2.497012E-02   2.101589E-02   2.741748E-02   4.240211E-02   3.611816E-02   7.614366E-02   6.999116E-02   5.199173E-02   4.651381E-02   9.680275E-02   2.489937E-02   4.970302E-02   7.107477E-02   3.100520E-02   5.621483E-02   6.748015E-02   1.053053E-01   1.036401E-01   9.536370E-02   1.513319E-01   2.316804E-01   3.535829E-01   8.923461E-02   1.143190E-01   1.087985E-01   4.546439E-02   8.330125E-02   1.342669E-01   2.250360E-01   2.118961E-01   5.875569E-02   6.770090E-02   3.808532E-02   3.337698E-02   5.808497E-02
   2.773604E-02   3.256506E-02   1.954773E-02   3.853137E-02   4.017870E-02   4.478305E-02   5.656148E-02   5.301231E-02   1.127497E-01   3.149248E-02   3.640832E-02   2.857347E-02   2.231852E-02   4.507181E-02   5.143620E-02   4.615661E-02   2.472720E-02   6.261829E-02   3.181337E-02   3.795876E-02   6.693806E-02   1.004949E-01   4.264469E-02   1.501122E-02   4.485678E-03   2.872334E-03   5.274179E-03   8.241580E-03   8.400688E-03   1.797275E-02   3.602424E-02   2.563046E-02   6.834945E-02   1.098837E-01   3.559069E-01   6.772339E-01   4.506938E-01   2.514086E-01   1.762311E-01   1.748471E-01   9.219881E-02   1.100615E-01   5.397087E-02   3.540750E-02   7.794803E-02   8.534137E-02   5.665679E-02   4.098276E-02   5.762581E-02   4.565851E-02   3.295664E-02   6.155288E-02   1.461149E-01   2.305371E-01   1.676996E-01   1.702070E-01   1.809041E-01   1.185012E-01   5.109800E-02   5.836698E-02   4.508806E-02   3.972225E-02   6.232544E-02   6.222295E-02   4.178491E-02   3.445069E-02   1.749599E-02   5.614324E-02   6.515838E-02   7.469219E-02   1.656204E-01   4.627255E-02   7.391526E-02   1.043154E-01   1.084710E-01   8.902574E-02   1.737904E-01   1.698876E-01   1.499920E-01   5.504879E-02   3.584446E-02   2.873504E-02   1.574705E-02   1.579521E-02   6.323332E-02   4.414424E-02   2.461579E-02   3.093209E-02   1.858056E-02   2.427927E-02   2.427927E-02   4.201733E-02   1.083534E-01   1.083534E-01   9.551679E-02   4.270491E-02   4.270491E-02   5.653597E-02   5.653597E-02   5.653597E-02   7.198951E-02   7.198951E-02   7.198951E-02   2.950917E-02   2.950917E-02   2.950917E-02   2.950917E-02   2.950917E-02   6.356747E-02   6.356747E-02   6.356747E-02   6.356747E-02   6.356747E-02   5.770710E-02   5.770710E-02   5.770710E-02   5.770710E-02   5.770710E-02   5.770710E-02   5.770710E-02   1.733716E-01   1.733716E-01   1.733716E-01   1.733716E-01   1.733716E-01   1.733716E-01   1.733716E-01   1.733716E-01   1.733716E-01   1.733716E-01   5.575739E-02   5.575739E-02   5.575739E-02   5.575739E-02   5.575739E-02   5.575739E-02   5.575739E-02   5.575739E-02   5.575739E-02   6.607466E-02   6.607466E-02   6.607466E-02   6.607466E-02   6.607466E-02   6.607466E-02   6.607466E-02   5.060529E-02   5.060529E-02   5.060529E-02   5.060529E-02   5.060529E-02   3.872925E-02   3.872925E-02   3.872925E-02   3.872925E-02   9.585015E-02   9.585015E-02   9.585015E-02   9.395467E-02   9.395467E-02   3.652905E-02   3.652905E-02   6.275108E-02   6.275108E-02   4.197505E-02   4.029273E-02   3.985471E-02   3.985471E-02   1.428989E-01   1.707275E-01   1.117043E-01   2.983043E-02   3.128839E-02   1.824506E-02   1.850425E-02   4.811184E-02   2.785984E-02   9.428085E-02   6.821659E-02   3.345186E-02   5.645706E-02   1.563667E-01   3.381604E-02   3.529921E-02   6.086379E-02   3.906591E-02   9.842294E-02   1.191258E-01   1.070866E-01   1.221518E-01   4.880631E-02   1.456880E-01   2.532167E-01   5.899435E-01   1.362902E-01   2.642097E-01   5.935405E-02   4.017318E-02   6.751598E-02   1.049075E-01   2.972510E-01   1.745365E-01   5.156179E-02   1.228846E-01   4.609548E-02   4.587070E-02   5.523563E-02