# LPF package for  MODFLOW-2005, generated by Flopy.
        53    -1E+30         0  
         1
         0
   0.000000E+00
         0
         0
INTERNAL               1 (207E15.6) -1 #hk layer 1                    
   1.163545E+01   1.153749E+01   2.229317E+01   1.398891E+02   8.389362E+01   8.854723E+01   4.893041E+01   8.620662E+01   1.336448E+02   7.390842E+01   1.137557E+02   7.864594E+01   3.179850E+01   7.133823E+01   5.896376E+01   4.015987E+01   1.064101E+02   3.523703E+01   4.144263E+01   1.223196E+01   1.639691E+01   1.809102E+01   2.630639E+01   5.580011E+01   3.036578E+01   3.999233E+01   6.885931E+01   5.856053E+01   4.026302E+01   4.397098E+01   3.500863E+01   7.244259E+01   3.417613E+01   1.373553E+01   3.998088E+00   3.169419E+00   8.448966E+00   4.889978E+00   2.635391E+01   1.736926E+01   1.772073E+01   1.668117E+01   1.124946E+02   5.227316E+02   2.943441E+02   1.425758E+02   6.771365E+01   6.320269E+01   7.692442E+01   4.321719E+01   1.104937E+02   2.801796E+01   2.913328E+01   2.733342E+01   3.637758E+01   6.866492E+01   3.668993E+01   3.674054E+01   1.019049E+02   1.704297E+01   6.659455E+00   2.003677E+01   3.508382E+01   2.523042E+01   6.778297E+01   1.049082E+02   2.415762E+01   2.374166E+01   2.812794E+01   2.929886E+01   8.721463E+01   4.429935E+01   1.626219E+02   3.533431E+02   1.640599E+02   4.484370E+02   1.989178E+02   7.486338E+01   3.587689E+01   4.661154E+01   1.468304E+02   1.181681E+02   5.606311E+01   1.042695E+02   2.132456E+02   7.303816E+01   4.549401E+01   4.929678E+01   4.659341E+01   4.748041E+01   4.748041E+01   7.962405E+01   7.376645E+01   7.376645E+01   4.504636E+01   2.533783E+01   2.533783E+01   7.127954E+00   7.127954E+00   7.127954E+00   2.339729E+01   2.339729E+01   2.339729E+01   4.081440E+01   4.081440E+01   4.081440E+01   4.081440E+01   4.081440E+01   2.558433E+01   2.558433E+01   2.558433E+01   2.558433E+01   2.558433E+01   8.263040E+01   8.263040E+01   8.263040E+01   8.263040E+01   8.263040E+01   8.263040E+01   8.263040E+01   8.912364E+01   8.912364E+01   8.912364E+01   8.912364E+01   8.912364E+01   8.912364E+01   8.912364E+01   8.912364E+01   8.912364E+01   8.912364E+01   1.066995E+02   1.066995E+02   1.066995E+02   1.066995E+02   1.066995E+02   1.066995E+02   1.066995E+02   1.066995E+02   1.066995E+02   9.158902E+01   9.158902E+01   9.158902E+01   9.158902E+01   9.158902E+01   9.158902E+01   9.158902E+01   1.357611E+02   1.357611E+02   1.357611E+02   1.357611E+02   1.357611E+02   5.766145E+01   5.766145E+01   5.766145E+01   5.766145E+01   1.135632E+01   1.135632E+01   1.135632E+01   1.286927E+01   1.286927E+01   3.139559E+01   3.139559E+01   3.693531E+01   3.693531E+01   4.299499E+01   1.644133E+01   7.970974E+00   7.970974E+00   1.233361E+01   9.762107E+00   7.801808E+00   7.112834E+01   3.247783E+01   8.100078E+01   1.416026E+02   6.607552E+01   6.326605E+01   3.840134E+01   3.738050E+01   2.410260E+01   3.054943E+01   3.316681E+01   9.932316E+00   9.443788E+00   7.935535E+00   1.970059E+01   5.251572E+01   8.095297E+01   7.628410E+01   7.399282E+01   4.525261E+01   3.365643E+01   1.749783E+01   1.373465E+01   2.199496E+01   6.234258E+01   3.548740E+01   2.445654E+01   1.295378E+02   8.008329E+01   5.724419E+01   3.006592E+01   1.315810E+01   7.024427E+01   2.848390E+01   5.369764E+01   5.636190E+01
   1.453593E+01   7.714528E+00   3.021868E+01   7.090891E+01   8.357995E+01   1.280771E+02   4.894873E+01   1.216159E+02   7.191560E+01   8.032923E+01   1.606383E+02   1.167252E+02   7.802366E+01   6.061147E+01   3.370940E+01   2.763913E+01   3.361115E+01   4.939950E+01   2.277017E+01   9.614966E+00   3.466434E+01   1.945688E+01   6.370941E+01   7.307241E+01   8.153622E+01   8.049335E+01   1.108406E+02   1.082241E+02   4.886872E+01   3.200366E+01   5.848563E+01   6.881908E+01   1.699943E+01   1.174210E+01   1.223574E+01   3.124509E+00   1.917502E+00   3.409163E+00   2.377678E+01   3.965887E+01   5.183339E+01   2.866877E+01   4.868486E+01   1.035359E+02   1.901022E+02   5.885044E+01   5.212723E+01   2.918470E+01   3.382991E+01   2.250705E+01   3.681373E+01   2.748731E+01   6.389277E+01   2.692987E+01   1.916756E+01   9.061774E+01   6.527911E+01   5.689551E+01   1.071915E+02   2.084363E+01   1.402966E+01   1.420319E+01   2.325354E+01   2.863965E+01   4.581347E+01   6.660290E+01   4.214756E+01   4.227565E+01   3.500370E+01   3.059807E+01   1.059637E+02   3.612497E+01   6.870061E+01   1.116758E+02   5.947593E+01   2.931549E+02   2.144450E+02   2.637384E+02   8.754271E+01   1.035231E+02   2.134210E+02   1.467114E+02   7.712128E+01   2.707611E+02   3.525005E+02   8.073617E+01   1.061299E+02   1.429715E+02   5.891174E+01   4.340239E+01   4.340239E+01   9.550108E+01   4.340275E+01   4.340275E+01   2.272432E+01   6.295399E+00   6.295399E+00   3.349632E+00   3.349632E+00   3.349632E+00   2.232802E+01   2.232802E+01   2.232802E+01   1.826335E+01   1.826335E+01   1.826335E+01   1.826335E+01   1.826335E+01   1.754905E+01   1.754905E+01   1.754905E+01   1.754905E+01   1.754905E+01   5.902108E+01   5.902108E+01   5.902108E+01   5.902108E+01   5.902108E+01   5.902108E+01   5.902108E+01   6.326407E+01   6.326407E+01   6.326407E+01   6.326407E+01   6.326407E+01   6.326407E+01   6.326407E+01   6.326407E+01   6.326407E+01   6.326407E+01   1.296479E+02   1.296479E+02   1.296479E+02   1.296479E+02   1.296479E+02   1.296479E+02   1.296479E+02   1.296479E+02   1.296479E+02   1.649277E+02   1.649277E+02   1.649277E+02   1.649277E+02   1.649277E+02   1.649277E+02   1.649277E+02   1.241802E+02   1.241802E+02   1.241802E+02   1.241802E+02   1.241802E+02   4.273032E+01   4.273032E+01   4.273032E+01   4.273032E+01   1.842210E+01   1.842210E+01   1.842210E+01   1.967381E+01   1.967381E+01   9.397979E+00   9.397979E+00   2.763531E+01   2.763531E+01   2.865461E+01   1.203335E+01   6.382490E+00   6.382490E+00   3.565270E+01   2.362416E+01   1.545883E+01   3.430917E+01   3.908405E+01   1.291303E+02   2.134532E+02   7.026233E+01   4.349052E+01   5.290038E+01   4.876075E+01   3.266667E+01   3.024087E+01   7.074133E+01   2.452824E+01   1.419182E+01   1.703120E+01   1.961255E+01   5.591197E+01   5.405586E+01   1.284068E+02   1.321098E+02   3.362735E+01   4.484146E+01   1.626905E+01   2.833098E+01   2.664689E+01   4.828128E+01   3.164991E+01   3.651485E+01   1.249713E+02   6.920565E+01   2.199506E+01   2.420914E+01   3.851141E+01   1.063481E+02   6.252325E+01   5.251636E+01   9.787414E+01
   1.668210E+01   6.624331E+00   3.743670E+01   2.920301E+01   5.177311E+01   6.577190E+01   4.390514E+01   1.484263E+02   4.989667E+01   7.905293E+01   1.107344E+02   8.034191E+01   5.892044E+01   5.071864E+01   3.758059E+01   3.464409E+01   2.578067E+01   4.448895E+01   2.680307E+01   1.552445E+01   2.529313E+01   2.364109E+01   6.419204E+01   1.106614E+02   9.231097E+01   8.151853E+01   1.219366E+02   1.119982E+02   4.829650E+01   5.607241E+01   5.077464E+01   4.194570E+01   5.844929E+01   1.151801E+01   1.403570E+01   3.053171E+00   3.453456E+00   8.657752E+00   2.002591E+01   4.839660E+01   6.033439E+01   4.483628E+01   4.133826E+01   8.604589E+01   1.233117E+02   6.131515E+01   3.733345E+01   2.899961E+01   1.690138E+01   1.385220E+01   2.763795E+01   3.838892E+01   9.187083E+01   2.946773E+01   3.656647E+01   5.531921E+01   7.125655E+01   7.182907E+01   9.318328E+01   4.028701E+01   1.536357E+01   1.920790E+01   3.968512E+01   3.734459E+01   3.199674E+01   6.583483E+01   4.925529E+01   8.597034E+01   5.628621E+01   2.632693E+01   1.710130E+02   1.121723E+02   7.046355E+01   3.919002E+01   1.071442E+02   1.126051E+02   1.694876E+02   1.878793E+02   1.267737E+02   1.439129E+02   1.228785E+02   1.608041E+02   1.771061E+02   5.532637E+02   2.871581E+02   1.201963E+02   1.056996E+02   2.517755E+02   3.966801E+01   2.987934E+01   2.987934E+01   2.974291E+01   3.774151E+01   3.774151E+01   2.317759E+01   4.405291E+00   4.405291E+00   5.582671E+00   5.582671E+00   5.582671E+00   1.067459E+01   1.067459E+01   1.067459E+01   1.927338E+01   1.927338E+01   1.927338E+01   1.927338E+01   1.927338E+01   1.287135E+01   1.287135E+01   1.287135E+01   1.287135E+01   1.287135E+01   5.881007E+01   5.881007E+01   5.881007E+01   5.881007E+01   5.881007E+01   5.881007E+01   5.881007E+01   5.580400E+01   5.580400E+01   5.580400E+01   5.580400E+01   5.580400E+01   5.580400E+01   5.580400E+01   5.580400E+01   5.580400E+01   5.580400E+01   7.362998E+01   7.362998E+01   7.362998E+01   7.362998E+01   7.362998E+01   7.362998E+01   7.362998E+01   7.362998E+01   7.362998E+01   9.085038E+01   9.085038E+01   9.085038E+01   9.085038E+01   9.085038E+01   9.085038E+01   9.085038E+01   6.798772E+01   6.798772E+01   6.798772E+01   6.798772E+01   6.798772E+01   5.169314E+01   5.169314E+01   5.169314E+01   5.169314E+01   3.724539E+01   3.724539E+01   3.724539E+01   1.213287E+01   1.213287E+01   2.211205E+01   2.211205E+01   2.566918E+01   2.566918E+01   2.719165E+01   1.830983E+01   1.684571E+01   1.684571E+01   5.358596E+01   2.451601E+01   7.706660E+00   3.377346E+01   3.765843E+01   1.530585E+02   7.850031E+01   4.968756E+01   3.176401E+01   3.712142E+01   6.132363E+01   1.092676E+02   4.549754E+01   5.104800E+01   2.784795E+01   2.140974E+01   2.106234E+01   1.674461E+01   3.028153E+01   8.611758E+01   1.300806E+02   1.343004E+02   2.986331E+01   4.514982E+01   2.353737E+01   1.801204E+01   3.795248E+01   6.375745E+01   3.613856E+01   3.998869E+01   7.561356E+01   5.771788E+01   3.043256E+01   2.796595E+01   5.890680E+01   9.631902E+01   1.053250E+02   8.263589E+01   7.412928E+01
   1.848044E+01   1.666919E+01   3.469584E+01   3.711807E+01   1.050860E+02   1.106371E+02   7.137734E+01   9.172784E+01   6.323746E+01   1.432518E+02   1.248295E+02   4.594844E+01   1.829192E+01   4.846312E+01   7.287033E+01   6.397446E+01   5.791084E+01   4.029308E+01   1.790738E+01   1.330808E+01   2.321230E+01   3.482335E+01   5.584875E+01   5.962399E+01   1.078746E+02   7.042094E+01   6.848425E+01   1.526462E+02   2.823757E+01   4.630186E+01   3.631210E+01   3.356440E+01   1.361570E+02   1.578157E+01   1.949590E+01   4.048368E+00   6.678899E+00   1.617934E+01   2.940199E+01   5.523763E+01   8.880977E+01   2.294380E+01   3.967352E+01   3.097413E+01   8.198460E+01   8.954088E+01   4.629954E+01   1.540012E+01   1.464287E+01   1.222591E+01   2.507110E+01   3.287743E+01   7.224896E+01   3.593431E+01   2.345248E+01   1.020860E+02   7.626571E+01   8.192463E+01   6.437775E+01   3.498046E+01   2.652445E+01   1.397301E+01   2.456943E+01   3.060116E+01   3.504235E+01   6.207289E+01   3.768003E+01   5.534911E+01   2.078380E+01   6.907562E+01   9.590982E+01   6.786120E+01   9.182731E+01   4.136369E+01   6.508249E+01   1.295867E+02   5.453667E+01   1.625942E+02   7.089778E+01   1.575872E+02   1.977642E+02   3.653219E+02   9.631227E+01   2.652680E+02   3.845899E+02   1.710042E+02   1.408515E+02   1.378693E+02   6.290530E+01   6.979775E+01   6.979775E+01   4.955329E+01   9.538300E+01   9.538300E+01   2.395407E+01   5.180908E+00   5.180908E+00   7.502235E+00   7.502235E+00   7.502235E+00   8.241837E+00   8.241837E+00   8.241837E+00   1.353282E+01   1.353282E+01   1.353282E+01   1.353282E+01   1.353282E+01   9.359588E+00   9.359588E+00   9.359588E+00   9.359588E+00   9.359588E+00   2.228764E+01   2.228764E+01   2.228764E+01   2.228764E+01   2.228764E+01   2.228764E+01   2.228764E+01   3.060038E+01   3.060038E+01   3.060038E+01   3.060038E+01   3.060038E+01   3.060038E+01   3.060038E+01   3.060038E+01   3.060038E+01   3.060038E+01   3.192168E+01   3.192168E+01   3.192168E+01   3.192168E+01   3.192168E+01   3.192168E+01   3.192168E+01   3.192168E+01   3.192168E+01   7.634898E+01   7.634898E+01   7.634898E+01   7.634898E+01   7.634898E+01   7.634898E+01   7.634898E+01   5.901833E+01   5.901833E+01   5.901833E+01   5.901833E+01   5.901833E+01   1.904690E+01   1.904690E+01   1.904690E+01   1.904690E+01   2.230192E+01   2.230192E+01   2.230192E+01   1.394703E+01   1.394703E+01   1.345831E+01   1.345831E+01   1.686496E+01   1.686496E+01   3.012470E+01   1.422272E+01   2.191058E+01   2.191058E+01   2.906311E+01   1.078593E+01   1.699554E+01   2.892628E+01   6.832774E+01   2.099378E+02   7.027932E+01   2.494053E+01   1.588806E+01   2.111833E+01   8.653954E+01   8.516457E+01   2.969506E+01   2.265748E+01   3.410332E+01   4.115403E+01   5.623315E+01   5.203906E+01   3.371880E+01   4.625871E+01   7.211057E+01   1.335464E+02   5.936791E+01   4.049539E+01   2.962229E+01   3.477592E+01   6.574087E+01   2.074598E+02   4.839832E+01   5.590850E+01   4.766537E+01   5.905482E+01   1.842583E+01   1.794633E+01   2.137361E+01   7.355660E+01   1.153724E+02   4.265324E+01   7.876354E+01
   1.687091E+01   1.181053E+01   2.922009E+01   3.700410E+01   2.078778E+02   1.223529E+02   2.349639E+02   1.277442E+02   4.878355E+01   1.676942E+02   1.288020E+02   3.452619E+01   3.038026E+01   3.754422E+01   4.669978E+01   3.915003E+01   2.713343E+01   2.478368E+01   1.919667E+01   1.597625E+01   1.848472E+01   3.297579E+01   5.786727E+01   6.638666E+01   1.348226E+02   7.302425E+01   6.272696E+01   1.298969E+02   4.899217E+01   6.853698E+01   5.771426E+01   5.246955E+01   1.406919E+02   4.094463E+01   1.374782E+01   5.551236E+00   6.343098E+00   1.554317E+01   3.065727E+01   4.064668E+01   3.890653E+01   2.821617E+01   2.514003E+01   3.346421E+01   3.566867E+01   3.508045E+01   4.577009E+01   1.981472E+01   1.293428E+01   8.196287E+00   2.635267E+01   5.203837E+01   7.500475E+01   4.777700E+01   2.559609E+01   3.707035E+01   7.064258E+01   1.188042E+02   4.980509E+01   3.530695E+01   2.938432E+01   1.032948E+01   6.854861E+00   1.676255E+01   2.734503E+01   3.321387E+01   3.082611E+01   4.327952E+01   2.732799E+01   3.443072E+01   1.853065E+02   5.033303E+01   6.846510E+01   1.991601E+01   3.976630E+01   5.559043E+01   6.667592E+01   8.525014E+01   1.171522E+02   2.213835E+02   1.344151E+02   1.389430E+02   9.255402E+01   2.174935E+02   4.043778E+02   1.563200E+02   1.033267E+02   9.499284E+01   7.863445E+01   1.248595E+02   1.248595E+02   6.084269E+01   5.046181E+01   5.046181E+01   2.321413E+01   1.423506E+01   1.423506E+01   1.740079E+01   1.740079E+01   1.740079E+01   1.613699E+01   1.613699E+01   1.613699E+01   2.480717E+01   2.480717E+01   2.480717E+01   2.480717E+01   2.480717E+01   9.953822E+00   9.953822E+00   9.953822E+00   9.953822E+00   9.953822E+00   1.444013E+01   1.444013E+01   1.444013E+01   1.444013E+01   1.444013E+01   1.444013E+01   1.444013E+01   1.721845E+01   1.721845E+01   1.721845E+01   1.721845E+01   1.721845E+01   1.721845E+01   1.721845E+01   1.721845E+01   1.721845E+01   1.721845E+01   3.745709E+01   3.745709E+01   3.745709E+01   3.745709E+01   3.745709E+01   3.745709E+01   3.745709E+01   3.745709E+01   3.745709E+01   4.884962E+01   4.884962E+01   4.884962E+01   4.884962E+01   4.884962E+01   4.884962E+01   4.884962E+01   9.058549E+01   9.058549E+01   9.058549E+01   9.058549E+01   9.058549E+01   1.817244E+01   1.817244E+01   1.817244E+01   1.817244E+01   1.060866E+01   1.060866E+01   1.060866E+01   1.223522E+01   1.223522E+01   2.101547E+01   2.101547E+01   1.994309E+01   1.994309E+01   1.560365E+01   2.013799E+01   1.600305E+01   1.600305E+01   2.718133E+01   2.577520E+01   2.319014E+01   3.711611E+01   5.572494E+01   1.629151E+02   5.521645E+01   4.010804E+01   4.258495E+01   6.156802E+01   9.342533E+01   5.001254E+01   1.409900E+01   2.733308E+01   4.987453E+01   6.303448E+01   3.795628E+01   1.496051E+01   4.782214E+01   9.583147E+01   8.978547E+01   5.771103E+01   2.123129E+01   2.357347E+01   2.026261E+01   3.566284E+01   5.888042E+01   1.469212E+02   8.243476E+01   4.972071E+01   2.835552E+01   2.026970E+01   1.363516E+01   1.427160E+01   1.742836E+01   6.867995E+01   3.899681E+01   6.302799E+01   7.396146E+01
   2.398511E+01   3.633337E+01   3.116463E+01   3.500701E+01   2.806268E+02   2.096714E+02   3.242575E+02   1.068845E+02   4.149846E+01   1.060705E+02   1.168802E+02   3.362808E+01   3.407098E+01   2.347976E+01   3.148065E+01   8.866585E+01   1.662575E+01   3.798093E+01   2.499988E+01   3.975606E+01   1.181696E+01   2.428291E+01   4.612942E+01   6.128708E+01   5.823715E+01   4.228740E+01   1.268065E+02   6.624924E+01   4.660159E+01   7.068643E+01   2.334964E+02   6.054365E+01   1.188333E+02   3.382564E+01   8.816812E+00   8.295661E+00   1.133434E+01   9.465162E+00   6.999651E+01   3.514429E+01   3.972411E+01   1.977863E+01   2.220578E+01   3.862033E+01   2.144183E+01   7.404166E+01   5.130376E+01   1.781781E+01   9.238021E+00   1.050674E+01   1.360183E+01   3.546557E+01   5.671776E+01   5.757034E+01   1.517127E+01   4.119722E+01   9.540897E+01   1.153539E+02   2.619244E+01   7.254455E+01   3.362130E+01   2.372981E+01   6.149571E+00   1.069118E+01   7.134568E+01   6.083292E+01   3.894677E+01   1.986508E+01   4.290441E+01   4.957584E+01   6.897330E+01   1.981625E+01   5.814765E+01   2.141047E+01   5.873895E+01   3.986657E+01   6.912437E+01   3.478945E+01   7.619187E+01   1.085709E+02   4.151386E+01   1.231913E+02   1.503040E+02   2.308170E+02   3.810569E+02   1.696399E+02   9.317591E+01   1.069344E+02   4.675813E+01   7.530727E+01   7.530727E+01   6.835148E+01   6.012003E+01   6.012003E+01   3.251413E+01   3.107749E+01   3.107749E+01   1.770209E+01   1.770209E+01   1.770209E+01   2.407161E+01   2.407161E+01   2.407161E+01   1.362205E+01   1.362205E+01   1.362205E+01   1.362205E+01   1.362205E+01   1.281924E+01   1.281924E+01   1.281924E+01   1.281924E+01   1.281924E+01   1.256480E+01   1.256480E+01   1.256480E+01   1.256480E+01   1.256480E+01   1.256480E+01   1.256480E+01   1.083529E+01   1.083529E+01   1.083529E+01   1.083529E+01   1.083529E+01   1.083529E+01   1.083529E+01   1.083529E+01   1.083529E+01   1.083529E+01   4.773641E+01   4.773641E+01   4.773641E+01   4.773641E+01   4.773641E+01   4.773641E+01   4.773641E+01   4.773641E+01   4.773641E+01   5.152461E+01   5.152461E+01   5.152461E+01   5.152461E+01   5.152461E+01   5.152461E+01   5.152461E+01   5.289204E+01   5.289204E+01   5.289204E+01   5.289204E+01   5.289204E+01   1.736773E+01   1.736773E+01   1.736773E+01   1.736773E+01   1.172572E+01   1.172572E+01   1.172572E+01   1.185686E+01   1.185686E+01   2.685574E+01   2.685574E+01   3.317596E+01   3.317596E+01   4.238596E+01   2.482310E+01   2.198860E+01   2.198860E+01   5.085995E+01   4.815515E+01   1.673937E+01   2.154335E+01   2.680608E+01   8.437614E+01   6.494498E+01   7.781277E+01   9.981040E+01   5.976900E+01   6.131690E+01   5.056385E+01   1.505517E+01   3.559874E+01   3.034828E+01   7.340969E+01   2.866514E+01   1.725042E+01   3.495388E+01   1.317747E+02   1.031703E+02   3.462344E+01   6.290226E+00   1.223914E+01   6.863234E+00   5.418199E+01   9.382321E+01   1.552708E+02   1.297305E+02   5.191013E+01   4.042472E+01   1.924594E+01   1.945757E+01   2.222059E+01   4.125174E+01   5.384559E+01   3.341690E+01   5.914784E+01   6.348865E+01
   2.898601E+01   4.842814E+01   3.867687E+01   6.355239E+01   6.644452E+02   4.192596E+02   3.069669E+02   2.288882E+02   7.017131E+01   5.036000E+01   4.826502E+01   4.205498E+01   5.887204E+01   1.263739E+01   5.136243E+01   6.502998E+01   1.851751E+01   6.455398E+01   4.381740E+01   2.449382E+01   2.185785E+01   2.145530E+01   4.059196E+01   9.182544E+01   6.183606E+01   3.627760E+01   1.479133E+02   8.496667E+01   6.997446E+01   9.284827E+01   1.736820E+02   7.817155E+01   1.966193E+02   2.585234E+01   2.301160E+01   1.633571E+01   2.555668E+01   1.463142E+01   1.217664E+02   5.588037E+01   2.572091E+01   5.835101E+00   2.797653E+01   3.773124E+01   7.663791E+01   5.422464E+01   7.512613E+01   8.840786E+01   6.906019E+00   1.022657E+01   7.177829E+00   1.847389E+01   2.275530E+01   4.534844E+01   2.404680E+01   3.338634E+01   6.773110E+01   6.871365E+01   2.795019E+01   4.416129E+01   2.843328E+01   1.938588E+01   9.003541E+00   7.997331E+00   4.833147E+01   7.876272E+01   3.569010E+01   1.615055E+01   2.343927E+01   3.029031E+01   3.833463E+01   4.255129E+01   4.873224E+01   1.721453E+01   2.520628E+01   6.707616E+01   6.148019E+01   4.034790E+01   4.407025E+01   5.613565E+01   4.929550E+01   7.609034E+01   1.156158E+02   2.163720E+02   2.409664E+02   8.416870E+01   6.348578E+01   5.853217E+01   3.243321E+01   2.676566E+01   2.676566E+01   2.981264E+01   1.019099E+02   1.019099E+02   8.153267E+01   4.119125E+01   4.119125E+01   2.735305E+01   2.735305E+01   2.735305E+01   2.735423E+01   2.735423E+01   2.735423E+01   1.187709E+01   1.187709E+01   1.187709E+01   1.187709E+01   1.187709E+01   1.426954E+01   1.426954E+01   1.426954E+01   1.426954E+01   1.426954E+01   9.992027E+00   9.992027E+00   9.992027E+00   9.992027E+00   9.992027E+00   9.992027E+00   9.992027E+00   1.329296E+01   1.329296E+01   1.329296E+01   1.329296E+01   1.329296E+01   1.329296E+01   1.329296E+01   1.329296E+01   1.329296E+01   1.329296E+01   2.511802E+01   2.511802E+01   2.511802E+01   2.511802E+01   2.511802E+01   2.511802E+01   2.511802E+01   2.511802E+01   2.511802E+01   3.755656E+01   3.755656E+01   3.755656E+01   3.755656E+01   3.755656E+01   3.755656E+01   3.755656E+01   7.584676E+01   7.584676E+01   7.584676E+01   7.584676E+01   7.584676E+01   1.171663E+01   1.171663E+01   1.171663E+01   1.171663E+01   1.387853E+01   1.387853E+01   1.387853E+01   1.443524E+01   1.443524E+01   3.256612E+01   3.256612E+01   8.041048E+01   8.041048E+01   6.684353E+01   1.408034E+01   1.332903E+02   1.332903E+02   1.508089E+02   5.352797E+01   2.069820E+01   1.640225E+01   1.461833E+01   6.579097E+01   4.962887E+01   8.939675E+01   1.034131E+02   7.012769E+01   4.660835E+01   2.042775E+01   2.590505E+01   6.437296E+01   3.569079E+01   2.524540E+01   2.518329E+01   3.642575E+01   4.549885E+01   1.826198E+02   5.526382E+01   2.553993E+01   7.333033E+00   2.141774E+01   1.338351E+01   3.507844E+01   4.343013E+01   1.908438E+02   2.558114E+02   1.092165E+02   6.294188E+01   1.821889E+01   2.481040E+01   2.202315E+01   5.441277E+01   2.962817E+01   3.840190E+01   3.107371E+01   4.200213E+01
   4.642144E+01   3.574211E+01   4.062513E+01   1.295788E+02   1.907212E+02   3.212800E+02   2.618741E+02   1.745005E+02   1.205213E+02   1.085973E+02   6.873820E+01   4.365764E+01   3.953474E+01   2.665865E+01   3.348154E+01   1.132384E+02   7.665919E+01   6.828428E+01   6.303984E+01   3.203035E+01   1.341605E+01   1.562075E+01   4.995607E+01   1.073624E+02   8.258208E+01   4.676423E+01   1.351500E+02   7.351984E+01   7.257700E+01   5.750408E+01   1.251479E+02   1.234280E+02   1.014029E+02   1.622885E+01   1.698563E+01   1.786830E+01   2.314876E+01   1.713697E+01   6.109904E+01   5.428594E+01   5.545650E+01   8.628635E+00   3.168260E+01   3.008591E+01   9.560648E+01   7.903582E+01   1.782777E+02   1.169419E+02   5.475910E+00   9.813533E+00   6.270607E+00   1.448179E+01   2.077827E+01   3.436925E+01   1.601961E+01   2.092891E+01   6.495760E+01   5.392739E+01   5.002460E+01   4.588862E+01   3.976200E+01   1.920633E+01   2.629664E+01   1.296640E+01   3.486837E+01   3.931177E+01   3.185884E+01   4.955059E+01   5.605920E+01   5.466608E+01   6.360441E+01   2.519728E+01   9.913710E+00   1.420235E+01   3.915995E+01   5.138361E+01   2.372955E+01   1.590444E+01   4.355642E+01   2.698791E+01   4.247976E+01   8.636189E+01   7.122035E+01   1.485012E+02   2.301559E+02   1.283770E+02   9.813351E+01   8.249505E+01   4.028107E+01   2.172721E+01   2.172721E+01   5.231071E+01   2.288835E+02   2.288835E+02   8.974773E+01   2.019604E+01   2.019604E+01   3.291772E+01   3.291772E+01   3.291772E+01   1.869832E+01   1.869832E+01   1.869832E+01   1.552525E+01   1.552525E+01   1.552525E+01   1.552525E+01   1.552525E+01   1.523446E+01   1.523446E+01   1.523446E+01   1.523446E+01   1.523446E+01   6.231945E+00   6.231945E+00   6.231945E+00   6.231945E+00   6.231945E+00   6.231945E+00   6.231945E+00   9.096008E+00   9.096008E+00   9.096008E+00   9.096008E+00   9.096008E+00   9.096008E+00   9.096008E+00   9.096008E+00   9.096008E+00   9.096008E+00   2.847308E+01   2.847308E+01   2.847308E+01   2.847308E+01   2.847308E+01   2.847308E+01   2.847308E+01   2.847308E+01   2.847308E+01   2.687434E+01   2.687434E+01   2.687434E+01   2.687434E+01   2.687434E+01   2.687434E+01   2.687434E+01   2.836388E+01   2.836388E+01   2.836388E+01   2.836388E+01   2.836388E+01   2.296977E+01   2.296977E+01   2.296977E+01   2.296977E+01   1.465659E+01   1.465659E+01   1.465659E+01   1.521033E+01   1.521033E+01   9.430330E+01   9.430330E+01   1.137401E+02   1.137401E+02   5.104587E+01   2.471067E+01   1.430145E+02   1.430145E+02   1.378884E+02   4.339287E+01   2.722949E+01   1.989469E+01   4.230392E+01   3.245801E+01   9.461864E+01   6.080491E+01   1.857726E+01   6.341051E+01   3.245485E+01   2.263379E+01   1.924990E+01   4.147358E+01   2.771905E+01   3.493200E+01   1.604432E+01   4.088770E+01   4.976973E+01   3.842384E+01   7.011076E+01   1.001387E+01   1.227950E+01   2.644024E+01   1.665262E+01   2.337365E+01   9.091407E+01   1.930568E+02   2.550047E+02   5.576725E+01   2.865156E+01   2.278357E+01   3.613154E+01   4.173178E+01   4.680923E+01   3.269182E+01   2.566965E+01   3.115508E+01   5.100237E+01
   3.002477E+01   3.553798E+01   4.610313E+01   1.031076E+02   1.095419E+02   1.723730E+02   2.032533E+02   1.501926E+02   1.725957E+02   9.169228E+01   4.393317E+01   2.380341E+01   2.905653E+01   2.786470E+01   2.998602E+01   4.101474E+01   6.832742E+01   4.883212E+01   5.773882E+01   3.459106E+01   1.281184E+01   3.238708E+01   7.364825E+01   8.068830E+01   9.845249E+01   5.923213E+01   9.734583E+01   3.825869E+01   8.099705E+01   1.342115E+02   7.538721E+01   9.349331E+01   3.923100E+01   1.203600E+01   1.294935E+01   1.381133E+01   2.060510E+01   4.609684E+01   6.269800E+01   6.696127E+01   2.490500E+01   1.677007E+01   4.193514E+01   5.259143E+01   1.268266E+02   7.743536E+01   3.403369E+02   1.281582E+02   2.042972E+01   1.135792E+01   6.289207E+00   2.126025E+01   1.472298E+01   1.925797E+01   2.945487E+01   3.257679E+01   5.002545E+01   6.823753E+01   6.823086E+01   5.709548E+01   4.220690E+01   2.168514E+01   2.034688E+01   1.954092E+01   2.068015E+01   4.088667E+01   9.335221E+01   4.804236E+01   4.429802E+01   5.794779E+01   7.628961E+01   2.371232E+01   7.886096E+00   2.195246E+01   2.634475E+01   6.198359E+01   2.240822E+01   1.674502E+01   2.775246E+01   2.973644E+01   2.724592E+01   1.132370E+02   1.829084E+02   3.982105E+02   3.118676E+02   2.479829E+02   1.652573E+02   4.577303E+01   3.006508E+01   2.474744E+01   2.474744E+01   9.032387E+01   1.770289E+02   1.770289E+02   6.715440E+01   3.553803E+01   3.553803E+01   2.897610E+01   2.897610E+01   2.897610E+01   1.401191E+01   1.401191E+01   1.401191E+01   2.747266E+01   2.747266E+01   2.747266E+01   2.747266E+01   2.747266E+01   1.297532E+01   1.297532E+01   1.297532E+01   1.297532E+01   1.297532E+01   2.032176E+01   2.032176E+01   2.032176E+01   2.032176E+01   2.032176E+01   2.032176E+01   2.032176E+01   5.976081E+00   5.976081E+00   5.976081E+00   5.976081E+00   5.976081E+00   5.976081E+00   5.976081E+00   5.976081E+00   5.976081E+00   5.976081E+00   2.791044E+01   2.791044E+01   2.791044E+01   2.791044E+01   2.791044E+01   2.791044E+01   2.791044E+01   2.791044E+01   2.791044E+01   2.521260E+01   2.521260E+01   2.521260E+01   2.521260E+01   2.521260E+01   2.521260E+01   2.521260E+01   3.110887E+01   3.110887E+01   3.110887E+01   3.110887E+01   3.110887E+01   4.047240E+01   4.047240E+01   4.047240E+01   4.047240E+01   1.965899E+01   1.965899E+01   1.965899E+01   3.976439E+01   3.976439E+01   2.407110E+02   2.407110E+02   2.819648E+02   2.819648E+02   8.333926E+01   6.930587E+01   1.428666E+02   1.428666E+02   2.577722E+02   6.031495E+01   4.107626E+01   7.585175E+01   7.016956E+01   4.461935E+01   3.381105E+01   2.664012E+01   1.480229E+01   2.005424E+01   2.089845E+01   1.278455E+01   1.224602E+01   2.298348E+01   3.757486E+01   5.432376E+01   4.946189E+01   2.652512E+01   6.222338E+01   2.821271E+01   3.859167E+01   1.197814E+01   1.337249E+01   4.503293E+01   1.550915E+01   2.087078E+01   6.943197E+01   2.193278E+02   8.678538E+01   6.885764E+01   1.907033E+01   2.125767E+01   3.117393E+01   6.280556E+01   4.332762E+01   1.398698E+01   2.686265E+01   1.028216E+01   2.060704E+01