MODPATH_TIMESERIES_FILE         7         2
    2   0.0000000000E+00  0.0000000000E+00  0.0000000000E+00  0.0000000000E+00
END HEADER
       0       1  0.0000000000E+00         1    1         1     16483  0.4166666667E-01  0.4166666667E-01  0.5000000000E+00  0.9995360867E+03  0.4992921557E+03 -0.7019963264E+01         1
       0       1  0.0000000000E+00         2    1         2     16483  0.1250000000E+00  0.4166666667E-01  0.5000000000E+00  0.9996194200E+03  0.4992921557E+03 -0.7019963264E+01         1
       0       1  0.0000000000E+00         3    1         3     16483  0.2083333333E+00  0.4166666667E-01  0.5000000000E+00  0.9997027533E+03  0.4992921557E+03 -0.7019963264E+01         1
       0       1  0.0000000000E+00         4    1         4     16483  0.2916666667E+00  0.4166666667E-01  0.5000000000E+00  0.9997860867E+03  0.4992921557E+03 -0.7019963264E+01         1
       0       1  0.0000000000E+00         5    1         5     16483  0.3750000000E+00  0.4166666667E-01  0.5000000000E+00  0.9998694200E+03  0.4992921557E+03 -0.7019963264E+01         1
       0       1  0.0000000000E+00         6    1         6     16483  0.4583333333E+00  0.4166666667E-01  0.5000000000E+00  0.9999527533E+03  0.4992921557E+03 -0.7019963264E+01         1
       0       1  0.0000000000E+00         7    1         7     16483  0.5416666667E+00  0.4166666667E-01  0.5000000000E+00  0.1000036087E+04  0.4992921557E+03 -0.7019963264E+01         1
       0       1  0.0000000000E+00         8    1         8     16483  0.6250000000E+00  0.4166666667E-01  0.5000000000E+00  0.1000119420E+04  0.4992921557E+03 -0.7019963264E+01         1
       0       1  0.0000000000E+00         9    1         9     16483  0.7083333333E+00  0.4166666667E-01  0.5000000000E+00  0.1000202753E+04  0.4992921557E+03 -0.7019963264E+01         1
       0       1  0.0000000000E+00        10    1        10     16483  0.7916666667E+00  0.4166666667E-01  0.5000000000E+00  0.1000286087E+04  0.4992921557E+03 -0.7019963264E+01         1
       0       1  0.0000000000E+00        11    1        11     16483  0.8750000000E+00  0.4166666667E-01  0.5000000000E+00  0.1000369420E+04  0.4992921557E+03 -0.7019963264E+01         1
       0       1  0.0000000000E+00        12    1        12     16483  0.9583333333E+00  0.4166666667E-01  0.5000000000E+00  0.1000452753E+04  0.4992921557E+03 -0.7019963264E+01         1
       0       1  0.0000000000E+00        13    1        13     16483  0.4166666667E-01  0.1250000000E+00  0.5000000000E+00  0.9995360867E+03  0.4993754890E+03 -0.7019963264E+01         1
       0       1  0.0000000000E+00        14    1        14     16483  0.1250000000E+00  0.1250000000E+00  0.5000000000E+00  0.9996194200E+03  0.4993754890E+03 -0.7019963264E+01         1
       0       1  0.0000000000E+00        15    1        15     16483  0.2083333333E+00  0.1250000000E+00  0.5000000000E+00  0.9997027533E+03  0.4993754890E+03 -0.7019963264E+01         1
       0       1  0.0000000000E+00        16    1        16     16483  0.2916666667E+00  0.1250000000E+00  0.5000000000E+00  0.9997860867E+03  0.4993754890E+03 -0.7019963264E+01         1
       0       1  0.0000000000E+00        17    1        17     16483  0.3750000000E+00  0.1250000000E+00  0.5000000000E+00  0.9998694200E+03  0.4993754890E+03 -0.7019963264E+01         1
       0       1  0.0000000000E+00        18    1        18     16483  0.4583333333E+00  0.1250000000E+00  0.5000000000E+00  0.9999527533E+03  0.4993754890E+03 -0.7019963264E+01         1
       0       1  0.0000000000E+00        19    1        19     16483  0.5416666667E+00  0.1250000000E+00  0.5000000000E+00  0.1000036087E+04  0.4993754890E+03 -0.7019963264E+01         1
       0       1  0.0000000000E+00        20    1        20     16483  0.6250000000E+00  0.1250000000E+00  0.5000000000E+00  0.1000119420E+04  0.4993754890E+03 -0.7019963264E+01         1
       0       1  0.0000000000E+00        21    1        21     16483  0.7083333333E+00  0.1250000000E+00  0.5000000000E+00  0.1000202753E+04  0.4993754890E+03 -0.7019963264E+01         1
       0       1  0.0000000000E+00        22    1        22     16483  0.7916666667E+00  0.1250000000E+00  0.5000000000E+00  0.1000286087E+04  0.4993754890E+03 -0.7019963264E+01         1
       0       1  0.0000000000E+00        23    1        23     16483  0.8750000000E+00  0.1250000000E+00  0.5000000000E+00  0.1000369420E+04  0.4993754890E+03 -0.7019963264E+01         1
       0       1  0.0000000000E+00        24    1        24     16483  0.9583333333E+00  0.1250000000E+00  0.5000000000E+00  0.1000452753E+04  0.4993754890E+03 -0.7019963264E+01         1
       0       1  0.0000000000E+00        25    1        25     16483  0.4166666667E-01  0.2083333333E+00  0.5000000000E+00  0.9995360867E+03  0.4994588223E+03 -0.7019963264E+01         1
       0       1  0.0000000000E+00        26    1        26     16483  0.1250000000E+00  0.2083333333E+00  0.5000000000E+00  0.9996194200E+03  0.4994588223E+03 -0.7019963264E+01         1
       0       1  0.0000000000E+00        27    1        27     16483  0.2083333333E+00  0.2083333333E+00  0.5000000000E+00  0.9997027533E+03  0.4994588223E+03 -0.7019963264E+01         1
       0       1  0.0000000000E+00        28    1        28     16483  0.2916666667E+00  0.2083333333E+00  0.5000000000E+00  0.9997860867E+03  0.4994588223E+03 -0.7019963264E+01         1
       0       1  0.0000000000E+00        29    1        29     16483  0.3750000000E+00  0.2083333333E+00  0.5000000000E+00  0.9998694200E+03  0.4994588223E+03 -0.7019963264E+01         1
       0       1  0.0000000000E+00        30    1        30     16483  0.4583333333E+00  0.2083333333E+00  0.5000000000E+00  0.9999527533E+03  0.4994588223E+03 -0.7019963264E+01         1
       0       1  0.0000000000E+00        31    1        31     16483  0.5416666667E+00  0.2083333333E+00  0.5000000000E+00  0.1000036087E+04  0.4994588223E+03 -0.7019963264E+01         1
       0       1  0.0000000000E+00        32    1        32     16483  0.6250000000E+00  0.2083333333E+00  0.5000000000E+00  0.1000119420E+04  0.4994588223E+03 -0.7019963264E+01         1
       0       1  0.0000000000E+00        33    1        33     16483  0.7083333333E+00  0.2083333333E+00  0.5000000000E+00  0.1000202753E+04  0.4994588223E+03 -0.7019963264E+01         1
       0       1  0.0000000000E+00        34    1        34     16483  0.7916666667E+00  0.2083333333E+00  0.5000000000E+00  0.1000286087E+04  0.4994588223E+03 -0.7019963264E+01         1
       0       1  0.0000000000E+00        35    1        35     16483  0.8750000000E+00  0.2083333333E+00  0.5000000000E+00  0.1000369420E+04  0.4994588223E+03 -0.7019963264E+01         1
       0       1  0.0000000000E+00        36    1        36     16483  0.9583333333E+00  0.2083333333E+00  0.5000000000E+00  0.1000452753E+04  0.4994588223E+03 -0.7019963264E+01         1
       0       1  0.0000000000E+00        37    1        37     16483  0.4166666667E-01  0.2916666667E+00  0.5000000000E+00  0.9995360867E+03  0.4995421557E+03 -0.7019963264E+01         1
       0       1  0.0000000000E+00        38    1        38     16483  0.1250000000E+00  0.2916666667E+00  0.5000000000E+00  0.9996194200E+03  0.4995421557E+03 -0.7019963264E+01         1
       0       1  0.0000000000E+00        39    1        39     16483  0.2083333333E+00  0.2916666667E+00  0.5000000000E+00  0.9997027533E+03  0.4995421557E+03 -0.7019963264E+01         1
       0       1  0.0000000000E+00        40    1        40     16483  0.2916666667E+00  0.2916666667E+00  0.5000000000E+00  0.9997860867E+03  0.4995421557E+03 -0.7019963264E+01         1
       0       1  0.0000000000E+00        41    1        41     16483  0.3750000000E+00  0.2916666667E+00  0.5000000000E+00  0.9998694200E+03  0.4995421557E+03 -0.7019963264E+01         1
       0       1  0.0000000000E+00        42    1        42     16483  0.4583333333E+00  0.2916666667E+00  0.5000000000E+00  0.9999527533E+03  0.4995421557E+03 -0.7019963264E+01         1
       0       1  0.0000000000E+00        43    1        43     16483  0.5416666667E+00  0.2916666667E+00  0.5000000000E+00  0.1000036087E+04  0.4995421557E+03 -0.7019963264E+01         1
       0       1  0.0000000000E+00        44    1        44     16483  0.6250000000E+00  0.2916666667E+00  0.5000000000E+00  0.1000119420E+04  0.4995421557E+03 -0.7019963264E+01         1
       0       1  0.0000000000E+00        45    1        45     16483  0.7083333333E+00  0.2916666667E+00  0.5000000000E+00  0.1000202753E+04  0.4995421557E+03 -0.7019963264E+01         1
       0       1  0.0000000000E+00        46    1        46     16483  0.7916666667E+00  0.2916666667E+00  0.5000000000E+00  0.1000286087E+04  0.4995421557E+03 -0.7019963264E+01         1
       0       1  0.0000000000E+00        47    1        47     16483  0.8750000000E+00  0.2916666667E+00  0.5000000000E+00  0.1000369420E+04  0.4995421557E+03 -0.7019963264E+01         1
       0       1  0.0000000000E+00        48    1        48     16483  0.9583333333E+00  0.2916666667E+00  0.5000000000E+00  0.1000452753E+04  0.4995421557E+03 -0.7019963264E+01         1
       0       1  0.0000000000E+00        49    1        49     16483  0.4166666667E-01  0.3750000000E+00  0.5000000000E+00  0.9995360867E+03  0.4996254890E+03 -0.7019963264E+01         1
       0       1  0.0000000000E+00        50    1        50     16483  0.1250000000E+00  0.3750000000E+00  0.5000000000E+00  0.9996194200E+03  0.4996254890E+03 -0.7019963264E+01         1
       0       1  0.0000000000E+00        51    1        51     16483  0.2083333333E+00  0.3750000000E+00  0.5000000000E+00  0.9997027533E+03  0.4996254890E+03 -0.7019963264E+01         1
       0       1  0.0000000000E+00        52    1        52     16483  0.2916666667E+00  0.3750000000E+00  0.5000000000E+00  0.9997860867E+03  0.4996254890E+03 -0.7019963264E+01         1
       0       1  0.0000000000E+00        53    1        53     16483  0.3750000000E+00  0.3750000000E+00  0.5000000000E+00  0.9998694200E+03  0.4996254890E+03 -0.7019963264E+01         1
       0       1  0.0000000000E+00        54    1        54     16483  0.4583333333E+00  0.3750000000E+00  0.5000000000E+00  0.9999527533E+03  0.4996254890E+03 -0.7019963264E+01         1
       0       1  0.0000000000E+00        55    1        55     16483  0.5416666667E+00  0.3750000000E+00  0.5000000000E+00  0.1000036087E+04  0.4996254890E+03 -0.7019963264E+01         1
       0       1  0.0000000000E+00        56    1        56     16483  0.6250000000E+00  0.3750000000E+00  0.5000000000E+00  0.1000119420E+04  0.4996254890E+03 -0.7019963264E+01         1
       0       1  0.0000000000E+00        57    1        57     16483  0.7083333333E+00  0.3750000000E+00  0.5000000000E+00  0.1000202753E+04  0.4996254890E+03 -0.7019963264E+01         1
       0       1  0.0000000000E+00        58    1        58     16483  0.7916666667E+00  0.3750000000E+00  0.5000000000E+00  0.1000286087E+04  0.4996254890E+03 -0.7019963264E+01         1
       0       1  0.0000000000E+00        59    1        59     16483  0.8750000000E+00  0.3750000000E+00  0.5000000000E+00  0.1000369420E+04  0.4996254890E+03 -0.7019963264E+01         1
       0       1  0.0000000000E+00        60    1        60     16483  0.9583333333E+00  0.3750000000E+00  0.5000000000E+00  0.1000452753E+04  0.4996254890E+03 -0.7019963264E+01         1
       0       1  0.0000000000E+00        61    1        61     16483  0.4166666667E-01  0.4583333333E+00  0.5000000000E+00  0.9995360867E+03  0.4997088223E+03 -0.7019963264E+01         1
       0       1  0.0000000000E+00        62    1        62     16483  0.1250000000E+00  0.4583333333E+00  0.5000000000E+00  0.9996194200E+03  0.4997088223E+03 -0.7019963264E+01         1
       0       1  0.0000000000E+00        63    1        63     16483  0.2083333333E+00  0.4583333333E+00  0.5000000000E+00  0.9997027533E+03  0.4997088223E+03 -0.7019963264E+01         1
       0       1  0.0000000000E+00        64    1        64     16483  0.2916666667E+00  0.4583333333E+00  0.5000000000E+00  0.9997860867E+03  0.4997088223E+03 -0.7019963264E+01         1
       0       1  0.0000000000E+00        65    1        65     16483  0.3750000000E+00  0.4583333333E+00  0.5000000000E+00  0.9998694200E+03  0.4997088223E+03 -0.7019963264E+01         1
       0       1  0.0000000000E+00        66    1        66     16483  0.4583333333E+00  0.4583333333E+00  0.5000000000E+00  0.9999527533E+03  0.4997088223E+03 -0.7019963264E+01         1
       0       1  0.0000000000E+00        67    1        67     16483  0.5416666667E+00  0.4583333333E+00  0.5000000000E+00  0.1000036087E+04  0.4997088223E+03 -0.7019963264E+01         1
       0       1  0.0000000000E+00        68    1        68     16483  0.6250000000E+00  0.4583333333E+00  0.5000000000E+00  0.1000119420E+04  0.4997088223E+03 -0.7019963264E+01         1
       0       1  0.0000000000E+00        69    1        69     16483  0.7083333333E+00  0.4583333333E+00  0.5000000000E+00  0.1000202753E+04  0.4997088223E+03 -0.7019963264E+01         1
       0       1  0.0000000000E+00        70    1        70     16483  0.7916666667E+00  0.4583333333E+00  0.5000000000E+00  0.1000286087E+04  0.4997088223E+03 -0.7019963264E+01         1
       0       1  0.0000000000E+00        71    1        71     16483  0.8750000000E+00  0.4583333333E+00  0.5000000000E+00  0.1000369420E+04  0.4997088223E+03 -0.7019963264E+01         1
       0       1  0.0000000000E+00        72    1        72     16483  0.9583333333E+00  0.4583333333E+00  0.5000000000E+00  0.1000452753E+04  0.4997088223E+03 -0.7019963264E+01         1
       0       1  0.0000000000E+00        73    1        73     16483  0.4166666667E-01  0.5416666667E+00  0.5000000000E+00  0.9995360867E+03  0.4997921557E+03 -0.7019963264E+01         1
       0       1  0.0000000000E+00        74    1        74     16483  0.1250000000E+00  0.5416666667E+00  0.5000000000E+00  0.9996194200E+03  0.4997921557E+03 -0.7019963264E+01         1
       0       1  0.0000000000E+00        75    1        75     16483  0.2083333333E+00  0.5416666667E+00  0.5000000000E+00  0.9997027533E+03  0.4997921557E+03 -0.7019963264E+01         1
       0       1  0.0000000000E+00        76    1        76     16483  0.2916666667E+00  0.5416666667E+00  0.5000000000E+00  0.9997860867E+03  0.4997921557E+03 -0.7019963264E+01         1
       0       1  0.0000000000E+00        77    1        77     16483  0.3750000000E+00  0.5416666667E+00  0.5000000000E+00  0.9998694200E+03  0.4997921557E+03 -0.7019963264E+01         1
       0       1  0.0000000000E+00        78    1        78     16483  0.4583333333E+00  0.5416666667E+00  0.5000000000E+00  0.9999527533E+03  0.4997921557E+03 -0.7019963264E+01         1
       0       1  0.0000000000E+00        79    1        79     16483  0.5416666667E+00  0.5416666667E+00  0.5000000000E+00  0.1000036087E+04  0.4997921557E+03 -0.7019963264E+01         1
       0       1  0.0000000000E+00        80    1        80     16483  0.6250000000E+00  0.5416666667E+00  0.5000000000E+00  0.1000119420E+04  0.4997921557E+03 -0.7019963264E+01         1
       0       1  0.0000000000E+00        81    1        81     16483  0.7083333333E+00  0.5416666667E+00  0.5000000000E+00  0.1000202753E+04  0.4997921557E+03 -0.7019963264E+01         1
       0       1  0.0000000000E+00        82    1        82     16483  0.7916666667E+00  0.5416666667E+00  0.5000000000E+00  0.1000286087E+04  0.4997921557E+03 -0.7019963264E+01         1
       0       1  0.0000000000E+00        83    1        83     16483  0.8750000000E+00  0.5416666667E+00  0.5000000000E+00  0.1000369420E+04  0.4997921557E+03 -0.7019963264E+01         1
       0       1  0.0000000000E+00        84    1        84     16483  0.9583333333E+00  0.5416666667E+00  0.5000000000E+00  0.1000452753E+04  0.4997921557E+03 -0.7019963264E+01         1
       0       1  0.0000000000E+00        85    1        85     16483  0.4166666667E-01  0.6250000000E+00  0.5000000000E+00  0.9995360867E+03  0.4998754890E+03 -0.7019963264E+01         1
       0       1  0.0000000000E+00        86    1        86     16483  0.1250000000E+00  0.6250000000E+00  0.5000000000E+00  0.9996194200E+03  0.4998754890E+03 -0.7019963264E+01         1
       0       1  0.0000000000E+00        87    1        87     16483  0.2083333333E+00  0.6250000000E+00  0.5000000000E+00  0.9997027533E+03  0.4998754890E+03 -0.7019963264E+01         1
       0       1  0.0000000000E+00        88    1        88     16483  0.2916666667E+00  0.6250000000E+00  0.5000000000E+00  0.9997860867E+03  0.4998754890E+03 -0.7019963264E+01         1
       0       1  0.0000000000E+00        89    1        89     16483  0.3750000000E+00  0.6250000000E+00  0.5000000000E+00  0.9998694200E+03  0.4998754890E+03 -0.7019963264E+01         1
       0       1  0.0000000000E+00        90    1        90     16483  0.4583333333E+00  0.6250000000E+00  0.5000000000E+00  0.9999527533E+03  0.4998754890E+03 -0.7019963264E+01         1
       0       1  0.0000000000E+00        91    1        91     16483  0.5416666667E+00  0.6250000000E+00  0.5000000000E+00  0.1000036087E+04  0.4998754890E+03 -0.7019963264E+01         1
       0       1  0.0000000000E+00        92    1        92     16483  0.6250000000E+00  0.6250000000E+00  0.5000000000E+00  0.1000119420E+04  0.4998754890E+03 -0.7019963264E+01         1
       0       1  0.0000000000E+00        93    1        93     16483  0.7083333333E+00  0.6250000000E+00  0.5000000000E+00  0.1000202753E+04  0.4998754890E+03 -0.7019963264E+01         1
       0       1  0.0000000000E+00        94    1        94     16483  0.7916666667E+00  0.6250000000E+00  0.5000000000E+00  0.1000286087E+04  0.4998754890E+03 -0.7019963264E+01         1
       0       1  0.0000000000E+00        95    1        95     16483  0.8750000000E+00  0.6250000000E+00  0.5000000000E+00  0.1000369420E+04  0.4998754890E+03 -0.7019963264E+01         1
       0       1  0.0000000000E+00        96    1        96     16483  0.9583333333E+00  0.6250000000E+00  0.5000000000E+00  0.1000452753E+04  0.4998754890E+03 -0.7019963264E+01         1
       0       1  0.0000000000E+00        97    1        97     16483  0.4166666667E-01  0.7083333333E+00  0.5000000000E+00  0.9995360867E+03  0.4999588223E+03 -0.7019963264E+01         1
       0       1  0.0000000000E+00        98    1        98     16483  0.1250000000E+00  0.7083333333E+00  0.5000000000E+00  0.9996194200E+03  0.4999588223E+03 -0.7019963264E+01         1
       0       1  0.0000000000E+00        99    1        99     16483  0.2083333333E+00  0.7083333333E+00  0.5000000000E+00  0.9997027533E+03  0.4999588223E+03 -0.7019963264E+01         1
       0       1  0.0000000000E+00       100    1       100     16483  0.2916666667E+00  0.7083333333E+00  0.5000000000E+00  0.9997860867E+03  0.4999588223E+03 -0.7019963264E+01         1
       0       1  0.0000000000E+00       101    1       101     16483  0.3750000000E+00  0.7083333333E+00  0.5000000000E+00  0.9998694200E+03  0.4999588223E+03 -0.7019963264E+01         1
       0       1  0.0000000000E+00       102    1       102     16483  0.4583333333E+00  0.7083333333E+00  0.5000000000E+00  0.9999527533E+03  0.4999588223E+03 -0.7019963264E+01         1
       0       1  0.0000000000E+00       103    1       103     16483  0.5416666667E+00  0.7083333333E+00  0.5000000000E+00  0.1000036087E+04  0.4999588223E+03 -0.7019963264E+01         1
       0       1  0.0000000000E+00       104    1       104     16483  0.6250000000E+00  0.7083333333E+00  0.5000000000E+00  0.1000119420E+04  0.4999588223E+03 -0.7019963264E+01         1
       0       1  0.0000000000E+00       105    1       105     16483  0.7083333333E+00  0.7083333333E+00  0.5000000000E+00  0.1000202753E+04  0.4999588223E+03 -0.7019963264E+01         1
       0       1  0.0000000000E+00       106    1       106     16483  0.7916666667E+00  0.7083333333E+00  0.5000000000E+00  0.1000286087E+04  0.4999588223E+03 -0.7019963264E+01         1
       0       1  0.0000000000E+00       107    1       107     16483  0.8750000000E+00  0.7083333333E+00  0.5000000000E+00  0.1000369420E+04  0.4999588223E+03 -0.7019963264E+01         1
       0       1  0.0000000000E+00       108    1       108     16483  0.9583333333E+00  0.7083333333E+00  0.5000000000E+00  0.1000452753E+04  0.4999588223E+03 -0.7019963264E+01         1
       0       1  0.0000000000E+00       109    1       109     16483  0.4166666667E-01  0.7916666667E+00  0.5000000000E+00  0.9995360867E+03  0.5000421557E+03 -0.7019963264E+01         1
       0       1  0.0000000000E+00       110    1       110     16483  0.1250000000E+00  0.7916666667E+00  0.5000000000E+00  0.9996194200E+03  0.5000421557E+03 -0.7019963264E+01         1
       0       1  0.0000000000E+00       111    1       111     16483  0.2083333333E+00  0.7916666667E+00  0.5000000000E+00  0.9997027533E+03  0.5000421557E+03 -0.7019963264E+01         1
       0       1  0.0000000000E+00       112    1       112     16483  0.2916666667E+00  0.7916666667E+00  0.5000000000E+00  0.9997860867E+03  0.5000421557E+03 -0.7019963264E+01         1
       0       1  0.0000000000E+00       113    1       113     16483  0.3750000000E+00  0.7916666667E+00  0.5000000000E+00  0.9998694200E+03  0.5000421557E+03 -0.7019963264E+01         1
       0       1  0.0000000000E+00       114    1       114     16483  0.4583333333E+00  0.7916666667E+00  0.5000000000E+00  0.9999527533E+03  0.5000421557E+03 -0.7019963264E+01         1
       0       1  0.0000000000E+00       115    1       115     16483  0.5416666667E+00  0.7916666667E+00  0.5000000000E+00  0.1000036087E+04  0.5000421557E+03 -0.7019963264E+01         1
       0       1  0.0000000000E+00       116    1       116     16483  0.6250000000E+00  0.7916666667E+00  0.5000000000E+00  0.1000119420E+04  0.5000421557E+03 -0.7019963264E+01         1
       0       1  0.0000000000E+00       117    1       117     16483  0.7083333333E+00  0.7916666667E+00  0.5000000000E+00  0.1000202753E+04  0.5000421557E+03 -0.7019963264E+01         1
       0       1  0.0000000000E+00       118    1       118     16483  0.7916666667E+00  0.7916666667E+00  0.5000000000E+00  0.1000286087E+04  0.5000421557E+03 -0.7019963264E+01         1
       0       1  0.0000000000E+00       119    1       119     16483  0.8750000000E+00  0.7916666667E+00  0.5000000000E+00  0.1000369420E+04  0.5000421557E+03 -0.7019963264E+01         1
       0       1  0.0000000000E+00       120    1       120     16483  0.9583333333E+00  0.7916666667E+00  0.5000000000E+00  0.1000452753E+04  0.5000421557E+03 -0.7019963264E+01         1
       0       1  0.0000000000E+00       121    1       121     16483  0.4166666667E-01  0.8750000000E+00  0.5000000000E+00  0.9995360867E+03  0.5001254890E+03 -0.7019963264E+01         1
       0       1  0.0000000000E+00       122    1       122     16483  0.1250000000E+00  0.8750000000E+00  0.5000000000E+00  0.9996194200E+03  0.5001254890E+03 -0.7019963264E+01         1
       0       1  0.0000000000E+00       123    1       123     16483  0.2083333333E+00  0.8750000000E+00  0.5000000000E+00  0.9997027533E+03  0.5001254890E+03 -0.7019963264E+01         1
       0       1  0.0000000000E+00       124    1       124     16483  0.2916666667E+00  0.8750000000E+00  0.5000000000E+00  0.9997860867E+03  0.5001254890E+03 -0.7019963264E+01         1
       0       1  0.0000000000E+00       125    1       125     16483  0.3750000000E+00  0.8750000000E+00  0.5000000000E+00  0.9998694200E+03  0.5001254890E+03 -0.7019963264E+01         1
       0       1  0.0000000000E+00       126    1       126     16483  0.4583333333E+00  0.8750000000E+00  0.5000000000E+00  0.9999527533E+03  0.5001254890E+03 -0.7019963264E+01         1
       0       1  0.0000000000E+00       127    1       127     16483  0.5416666667E+00  0.8750000000E+00  0.5000000000E+00  0.1000036087E+04  0.5001254890E+03 -0.7019963264E+01         1
       0       1  0.0000000000E+00       128    1       128     16483  0.6250000000E+00  0.8750000000E+00  0.5000000000E+00  0.1000119420E+04  0.5001254890E+03 -0.7019963264E+01         1
       0       1  0.0000000000E+00       129    1       129     16483  0.7083333333E+00  0.8750000000E+00  0.5000000000E+00  0.1000202753E+04  0.5001254890E+03 -0.7019963264E+01         1
       0       1  0.0000000000E+00       130    1       130     16483  0.7916666667E+00  0.8750000000E+00  0.5000000000E+00  0.1000286087E+04  0.5001254890E+03 -0.7019963264E+01         1
       0       1  0.0000000000E+00       131    1       131     16483  0.8750000000E+00  0.8750000000E+00  0.5000000000E+00  0.1000369420E+04  0.5001254890E+03 -0.7019963264E+01         1
       0       1  0.0000000000E+00       132    1       132     16483  0.9583333333E+00  0.8750000000E+00  0.5000000000E+00  0.1000452753E+04  0.5001254890E+03 -0.7019963264E+01         1
       0       1  0.0000000000E+00       133    1       133     16483  0.4166666667E-01  0.9583333333E+00  0.5000000000E+00  0.9995360867E+03  0.5002088223E+03 -0.7019963264E+01         1
       0       1  0.0000000000E+00       134    1       134     16483  0.1250000000E+00  0.9583333333E+00  0.5000000000E+00  0.9996194200E+03  0.5002088223E+03 -0.7019963264E+01         1
       0       1  0.0000000000E+00       135    1       135     16483  0.2083333333E+00  0.9583333333E+00  0.5000000000E+00  0.9997027533E+03  0.5002088223E+03 -0.7019963264E+01         1
       0       1  0.0000000000E+00       136    1       136     16483  0.2916666667E+00  0.9583333333E+00  0.5000000000E+00  0.9997860867E+03  0.5002088223E+03 -0.7019963264E+01         1
       0       1  0.0000000000E+00       137    1       137     16483  0.3750000000E+00  0.9583333333E+00  0.5000000000E+00  0.9998694200E+03  0.5002088223E+03 -0.7019963264E+01         1
       0       1  0.0000000000E+00       138    1       138     16483  0.4583333333E+00  0.9583333333E+00  0.5000000000E+00  0.9999527533E+03  0.5002088223E+03 -0.7019963264E+01         1
       0       1  0.0000000000E+00       139    1       139     16483  0.5416666667E+00  0.9583333333E+00  0.5000000000E+00  0.1000036087E+04  0.5002088223E+03 -0.7019963264E+01         1
       0       1  0.0000000000E+00       140    1       140     16483  0.6250000000E+00  0.9583333333E+00  0.5000000000E+00  0.1000119420E+04  0.5002088223E+03 -0.7019963264E+01         1
       0       1  0.0000000000E+00       141    1       141     16483  0.7083333333E+00  0.9583333333E+00  0.5000000000E+00  0.1000202753E+04  0.5002088223E+03 -0.7019963264E+01         1
       0       1  0.0000000000E+00       142    1       142     16483  0.7916666667E+00  0.9583333333E+00  0.5000000000E+00  0.1000286087E+04  0.5002088223E+03 -0.7019963264E+01         1
       0       1  0.0000000000E+00       143    1       143     16483  0.8750000000E+00  0.9583333333E+00  0.5000000000E+00  0.1000369420E+04  0.5002088223E+03 -0.7019963264E+01         1
       0       1  0.0000000000E+00       144    1       144     16483  0.9583333333E+00  0.9583333333E+00  0.5000000000E+00  0.1000452753E+04  0.5002088223E+03 -0.7019963264E+01         1
       1       1  0.3000000000E+00         1    1         1     17514  0.5370497187E+00  0.9694206304E+00  0.5000000000E+00  0.9960314697E+03  0.4952199096E+03 -0.6759078622E+01         1
       1       1  0.3000000000E+00         2    1         2     17515  0.7573018439E+00  0.2043023402E+00  0.5000000000E+00  0.9972517218E+03  0.4944547913E+03 -0.6765164495E+01         1
       1       1  0.3000000000E+00         3    1         3     17724  0.2327934150E+00  0.8039984121E+00  0.5000000000E+00  0.9987272134E+03  0.4940544874E+03 -0.6765863538E+01         1
       1       1  0.3000000000E+00         4    1         4     17725  0.9333793511E+00  0.7894121380E+00  0.5000000000E+00  0.1000427799E+04  0.4940399011E+03 -0.6767799139E+01         1
       1       1  0.3000000000E+00         5    1         5     18347  0.4758081004E+00  0.3284042177E+00  0.5000000000E+00  0.1000970228E+04  0.4905788932E+03 -0.6752861619E+01         1
       1       1  0.3000000000E+00         6    1         6     18348  0.4483293638E+00  0.4226242640E+00  0.5000000000E+00  0.1001942749E+04  0.4906731133E+03 -0.6752964497E+01         1
       1       1  0.3000000000E+00         7    1         7     18349  0.4182103273E+00  0.6367129340E+00  0.5000000000E+00  0.1002912630E+04  0.4908872019E+03 -0.6752399325E+01         1
       1       1  0.3000000000E+00         8    1         8     18350  0.3478086183E+00  0.9632864596E+00  0.5000000000E+00  0.1003842229E+04  0.4912137755E+03 -0.6751282215E+01         1
       1       1  0.3000000000E+00         9    1         9     18144  0.1955516640E+00  0.3720606932E+00  0.5000000000E+00  0.1004689972E+04  0.4916225497E+03 -0.6752844095E+01         1
       1       1  0.3000000000E+00        10    1        10     18144  0.9925486145E+00  0.8445864811E+00  0.5000000000E+00  0.1005486969E+04  0.4920950755E+03 -0.6752844095E+01         1
       1       1  0.3000000000E+00        11    1        11     17938  0.6994704936E+00  0.4176436694E+00  0.5000000000E+00  0.1006193890E+04  0.4926681327E+03 -0.6753740668E+01         1
       1       1  0.3000000000E+00        12    1        12     17732  0.3563386670E+00  0.8924369679E-02  0.5000000000E+00  0.1006850759E+04  0.4932594134E+03 -0.6753876209E+01         1
       1       1  0.3000000000E+00        13    1        13     17306  0.5821442857E+00  0.8533266906E+00  0.5000000000E+00  0.9950765643E+03  0.4961038157E+03 -0.6758011937E+01         1
       1       1  0.3000000000E+00        14    1        14     17514  0.6828745803E+00  0.8621998473E+00  0.5000000000E+00  0.9961772946E+03  0.4951126888E+03 -0.6759078622E+01         1