# LPF package for  MODFLOW-2005, generated by Flopy.
        53    -1E+30         0  
         1
         0
   0.000000E+00
         0
         0
INTERNAL               1 (207E15.6) -1 #hk layer 1                    
   3.399758E+01   7.757266E+00   7.496548E+00   1.330918E+01   1.830546E+01   7.617841E+00   6.184557E+00   6.974400E+00   1.152702E+01   2.402429E+01   3.740121E+01   2.825511E+01   3.349559E+01   1.116658E+01   8.338652E+00   5.286900E+00   3.826323E+00   3.511504E+00   1.027000E+01   3.079103E+00   3.048450E+00   8.083448E+00   2.530551E+01   3.331107E+01   7.132801E+01   4.977005E+01   2.934804E+01   1.335368E+02   7.734074E+01   1.835941E+02   7.077968E+01   1.079314E+02   1.880820E+02   1.752464E+02   1.326183E+02   8.233891E+01   5.452782E+01   6.016713E+01   2.198091E+01   1.434495E+01   5.586727E+01   3.919173E+01   3.577912E+01   1.099401E+02   4.752607E+01   8.121264E+01   3.037702E+01   3.749814E+01   3.758385E+01   2.577117E+01   9.838089E+00   1.153202E+01   1.178958E+01   5.845516E+01   8.065810E+01   7.785556E+01   2.231760E+01   7.966420E+00   8.438593E+00   1.369901E+01   2.141112E+01   1.171469E+01   1.760218E+01   7.463487E+01   1.094668E+02   2.474555E+01   7.730904E+01   4.582639E+01   9.385201E+01   1.136568E+02   1.800547E+02   2.687071E+01   1.171951E+01   1.352173E+01   1.746657E+01   2.715890E+01   2.396761E+01   1.121412E+01   1.360685E+01   3.310181E+01   1.923746E+01   1.152161E+01   1.686070E+01   8.523685E+00   6.597829E+00   9.189184E+00   1.323850E+01   2.376600E+01   1.421488E+01   2.430326E+01   2.430326E+01   2.237879E+01   2.581162E+01   2.581162E+01   8.387081E+01   6.327529E+01   6.327529E+01   3.226239E+01   3.226239E+01   3.226239E+01   3.187496E+01   3.187496E+01   3.187496E+01   1.750269E+01   1.750269E+01   1.750269E+01   1.750269E+01   1.750269E+01   2.914033E+01   2.914033E+01   2.914033E+01   2.914033E+01   2.914033E+01   5.360466E+00   5.360466E+00   5.360466E+00   5.360466E+00   5.360466E+00   5.360466E+00   5.360466E+00   3.075381E+00   3.075381E+00   3.075381E+00   3.075381E+00   3.075381E+00   3.075381E+00   3.075381E+00   3.075381E+00   3.075381E+00   3.075381E+00   4.353467E+00   4.353467E+00   4.353467E+00   4.353467E+00   4.353467E+00   4.353467E+00   4.353467E+00   4.353467E+00   4.353467E+00   5.581411E+00   5.581411E+00   5.581411E+00   5.581411E+00   5.581411E+00   5.581411E+00   5.581411E+00   9.767074E+00   9.767074E+00   9.767074E+00   9.767074E+00   9.767074E+00   6.871673E+00   6.871673E+00   6.871673E+00   6.871673E+00   1.168987E+01   1.168987E+01   1.168987E+01   8.168027E+00   8.168027E+00   5.174200E+00   5.174200E+00   1.260359E+01   1.260359E+01   1.421517E+01   4.184111E+00   9.760869E+00   9.760869E+00   1.678371E+01   3.361690E+01   4.953333E+01   1.595626E+01   1.561711E+01   4.319570E+01   4.561090E+01   2.013074E+01   1.129005E+01   2.501926E+01   2.218495E+01   3.515264E+01   2.257989E+02   2.195774E+02   2.252401E+02   5.309881E+01   6.318415E+01   4.380584E+01   5.615637E+01   8.081233E+01   4.533247E+01   2.455597E+01   3.147233E+01   1.280322E+01   1.446133E+01   2.872363E+01   4.721582E+01   1.320256E+02   7.355264E+01   8.993271E+01   4.048977E+01   4.469757E+01   4.148390E+01   2.152665E+01   2.024024E+01   6.397655E+00   1.124191E+01   1.842147E+01   2.610820E+01
   1.250261E+01   1.594294E+01   1.488993E+01   2.369423E+01   1.612190E+01   5.614107E+00   8.619755E+00   1.037389E+01   3.151206E+01   1.345190E+01   1.168123E+01   1.076281E+01   1.486698E+01   1.792500E+01   1.702124E+01   4.522969E+00   5.818054E+00   7.676391E+00   1.337555E+01   4.524894E+00   6.264040E+00   9.577274E+00   3.018434E+01   2.180244E+01   6.429829E+01   4.223102E+01   3.767319E+01   8.650752E+01   6.386776E+01   1.203955E+02   3.679099E+01   1.006311E+02   3.330785E+02   1.228955E+02   1.655840E+02   9.240929E+01   2.801573E+01   3.354104E+01   1.624210E+01   2.551682E+01   2.854253E+01   3.372345E+01   3.544772E+01   1.565662E+02   7.053692E+01   7.127784E+01   2.338007E+01   2.265967E+01   2.324473E+01   8.144196E+00   7.325458E+00   1.728082E+01   2.021107E+01   4.471522E+01   1.255823E+02   1.381207E+02   3.012894E+01   5.823945E+00   7.569538E+00   1.710065E+01   3.032423E+01   2.052161E+01   2.313638E+01   9.372846E+01   4.149829E+01   2.087342E+01   8.707447E+01   9.646558E+01   2.575486E+01   3.550492E+01   5.587238E+01   1.178544E+01   1.218874E+01   1.171506E+01   1.122956E+01   2.194253E+01   1.703485E+01   2.052107E+01   4.711922E+01   5.243878E+01   1.412323E+01   6.113007E+00   1.823276E+01   2.090118E+01   1.105436E+01   1.540273E+01   2.439898E+01   3.197016E+01   1.360862E+01   1.830890E+01   1.830890E+01   1.704955E+01   1.599119E+01   1.599119E+01   4.770718E+01   1.715433E+01   1.715433E+01   2.253897E+01   2.253897E+01   2.253897E+01   1.853483E+01   1.853483E+01   1.853483E+01   3.084987E+01   3.084987E+01   3.084987E+01   3.084987E+01   3.084987E+01   2.455800E+01   2.455800E+01   2.455800E+01   2.455800E+01   2.455800E+01   1.035523E+01   1.035523E+01   1.035523E+01   1.035523E+01   1.035523E+01   1.035523E+01   1.035523E+01   3.241210E+00   3.241210E+00   3.241210E+00   3.241210E+00   3.241210E+00   3.241210E+00   3.241210E+00   3.241210E+00   3.241210E+00   3.241210E+00   3.705272E+00   3.705272E+00   3.705272E+00   3.705272E+00   3.705272E+00   3.705272E+00   3.705272E+00   3.705272E+00   3.705272E+00   5.704685E+00   5.704685E+00   5.704685E+00   5.704685E+00   5.704685E+00   5.704685E+00   5.704685E+00   9.296844E+00   9.296844E+00   9.296844E+00   9.296844E+00   9.296844E+00   5.438950E+00   5.438950E+00   5.438950E+00   5.438950E+00   6.606136E+00   6.606136E+00   6.606136E+00   1.468971E+01   1.468971E+01   7.495275E+00   7.495275E+00   9.056243E+00   9.056243E+00   1.359569E+01   6.048427E+00   1.116513E+01   1.116513E+01   1.569138E+01   1.636168E+01   5.442226E+01   2.116135E+01   2.269490E+01   6.135646E+01   4.402626E+01   1.413312E+01   8.638311E+00   2.188197E+01   2.143399E+01   3.931860E+01   2.264399E+02   1.995012E+02   1.110140E+02   4.425448E+01   6.657600E+01   3.754247E+01   2.846210E+01   5.856989E+01   8.113891E+01   4.120865E+01   2.700507E+01   8.338404E+00   1.346791E+01   2.358424E+01   4.687125E+01   1.304465E+02   1.139567E+02   8.600050E+01   8.045849E+01   2.788761E+01   1.903673E+01   8.796523E+00   8.279652E+00   9.445465E+00   9.453312E+00   1.813640E+01   1.338225E+01
   1.768574E+01   2.088594E+01   2.051952E+01   1.478069E+01   1.804057E+01   7.560281E+00   5.195712E+00   1.702917E+01   5.079420E+01   2.772597E+01   4.944190E+01   1.254984E+01   1.669261E+01   8.614633E+00   5.878681E+00   4.156022E+00   9.711861E+00   1.392937E+01   1.551374E+01   5.016995E+00   1.929634E+01   1.436019E+01   2.918519E+01   2.950331E+01   8.734006E+01   6.455430E+01   1.351718E+02   1.252693E+02   2.828593E+02   8.200264E+01   7.916537E+01   6.120299E+01   9.539329E+01   9.708189E+01   9.476205E+01   5.737075E+01   3.776292E+01   3.569671E+01   3.118343E+01   3.733147E+01   2.300707E+01   5.634137E+01   5.509849E+01   6.305743E+01   5.446308E+01   1.630010E+01   1.993474E+01   2.812613E+01   5.753186E+00   1.000319E+01   1.771795E+01   4.164057E+01   3.500309E+01   4.497918E+01   1.134408E+02   1.781054E+02   4.787867E+01   2.006584E+01   1.915283E+01   2.651643E+01   4.318009E+01   2.403501E+01   2.605422E+01   3.022492E+01   3.817433E+01   1.913909E+01   6.676842E+01   3.600279E+01   2.983563E+01   5.476775E+01   5.134335E+01   4.432039E+00   8.837545E+00   6.666220E+00   1.248525E+01   1.655756E+01   1.237929E+01   2.347501E+01   5.181387E+01   3.144146E+01   3.196762E+01   1.125849E+01   1.553920E+01   2.083825E+01   2.435719E+01   2.077832E+01   2.146407E+01   3.246363E+01   1.395935E+01   4.443830E+00   4.443830E+00   1.996456E+01   9.936283E+00   9.936283E+00   3.988871E+01   1.586183E+01   1.586183E+01   8.757247E+00   8.757247E+00   8.757247E+00   2.863465E+01   2.863465E+01   2.863465E+01   2.097397E+01   2.097397E+01   2.097397E+01   2.097397E+01   2.097397E+01   3.406654E+01   3.406654E+01   3.406654E+01   3.406654E+01   3.406654E+01   1.228376E+01   1.228376E+01   1.228376E+01   1.228376E+01   1.228376E+01   1.228376E+01   1.228376E+01   6.680010E+00   6.680010E+00   6.680010E+00   6.680010E+00   6.680010E+00   6.680010E+00   6.680010E+00   6.680010E+00   6.680010E+00   6.680010E+00   6.234742E+00   6.234742E+00   6.234742E+00   6.234742E+00   6.234742E+00   6.234742E+00   6.234742E+00   6.234742E+00   6.234742E+00   1.065300E+01   1.065300E+01   1.065300E+01   1.065300E+01   1.065300E+01   1.065300E+01   1.065300E+01   7.246609E+00   7.246609E+00   7.246609E+00   7.246609E+00   7.246609E+00   1.514756E+01   1.514756E+01   1.514756E+01   1.514756E+01   2.828930E+01   2.828930E+01   2.828930E+01   5.007903E+01   5.007903E+01   4.323925E+01   4.323925E+01   8.371767E+00   8.371767E+00   1.419865E+01   6.081366E+00   2.202313E+01   2.202313E+01   2.616246E+01   3.483758E+01   7.167255E+01   2.414027E+01   4.131685E+01   6.921955E+01   5.280190E+01   1.742466E+01   7.777860E+00   1.051269E+01   1.954474E+01   2.534956E+01   7.713179E+01   1.484949E+02   6.222568E+01   3.054291E+01   2.953457E+01   4.482863E+01   2.463178E+01   7.941660E+01   4.646157E+01   3.725600E+01   2.566771E+01   5.356336E+00   1.649019E+01   2.558790E+01   3.930650E+01   9.688159E+01   1.432126E+02   6.039093E+01   8.190253E+01   1.973068E+01   6.857279E+00   6.517010E+00   4.411595E+00   6.044970E+00   8.407907E+00   1.360767E+01   1.778896E+01
   2.495311E+01   2.260956E+01   1.230796E+01   2.456578E+01   1.638571E+01   7.813848E+00   5.638137E+00   2.277027E+01   3.653761E+01   5.232587E+01   5.759479E+01   2.332619E+01   2.517473E+01   1.088701E+01   6.954473E+00   5.495666E+00   6.625092E+00   2.375417E+01   1.376690E+01   6.864116E+00   2.745320E+01   1.539042E+01   3.148159E+01   3.490004E+01   1.198449E+02   7.721611E+01   1.691242E+02   1.142443E+02   1.756666E+02   6.474361E+01   9.061327E+01   8.509043E+01   1.439470E+02   5.581670E+01   5.053458E+01   5.528310E+01   3.272868E+01   3.044374E+01   4.221339E+01   4.011661E+01   4.061319E+01   9.362024E+01   6.964693E+01   8.788020E+01   5.934675E+01   2.621494E+01   1.043472E+01   1.768369E+01   9.307240E+00   1.348063E+01   4.043616E+01   2.946574E+01   3.770721E+01   6.480113E+01   1.016686E+02   1.150491E+02   4.811906E+01   1.827788E+01   1.961160E+01   4.266656E+01   3.936777E+01   2.233842E+01   2.462780E+01   3.546632E+01   2.611026E+01   2.172603E+01   3.942458E+01   1.970532E+01   5.313619E+01   3.916349E+01   2.084957E+01   2.628898E+00   9.885084E+00   6.987614E+00   9.374880E+00   1.993696E+01   3.033507E+01   4.967839E+01   4.413869E+01   1.740528E+01   1.794232E+01   1.200143E+01   9.263105E+00   1.487263E+01   3.981778E+01   2.655673E+01   2.218037E+01   1.627970E+01   9.793639E+00   2.728430E+00   2.728430E+00   6.024504E+00   1.068433E+01   1.068433E+01   9.478584E+00   1.353540E+01   1.353540E+01   2.247579E+01   2.247579E+01   2.247579E+01   6.072541E+01   6.072541E+01   6.072541E+01   2.826087E+01   2.826087E+01   2.826087E+01   2.826087E+01   2.826087E+01   5.259570E+01   5.259570E+01   5.259570E+01   5.259570E+01   5.259570E+01   2.177102E+01   2.177102E+01   2.177102E+01   2.177102E+01   2.177102E+01   2.177102E+01   2.177102E+01   7.943610E+00   7.943610E+00   7.943610E+00   7.943610E+00   7.943610E+00   7.943610E+00   7.943610E+00   7.943610E+00   7.943610E+00   7.943610E+00   1.516989E+01   1.516989E+01   1.516989E+01   1.516989E+01   1.516989E+01   1.516989E+01   1.516989E+01   1.516989E+01   1.516989E+01   1.073479E+01   1.073479E+01   1.073479E+01   1.073479E+01   1.073479E+01   1.073479E+01   1.073479E+01   1.390059E+01   1.390059E+01   1.390059E+01   1.390059E+01   1.390059E+01   1.098819E+01   1.098819E+01   1.098819E+01   1.098819E+01   8.867449E+01   8.867449E+01   8.867449E+01   5.116241E+01   5.116241E+01   7.372981E+01   7.372981E+01   1.222938E+01   1.222938E+01   1.405864E+01   9.188075E+00   1.745686E+01   1.745686E+01   4.178200E+01   4.074591E+01   7.499098E+01   5.285099E+01   4.757203E+01   5.357032E+01   4.291909E+01   8.388073E+00   3.396251E+00   1.214143E+01   1.577466E+01   2.915069E+01   6.935695E+01   6.134314E+01   4.257063E+01   1.645316E+01   3.988417E+01   5.307196E+01   1.788063E+01   4.628350E+01   3.275446E+01   3.580005E+01   1.335537E+01   9.745676E+00   1.700509E+01   1.587399E+01   3.355360E+01   1.069798E+02   2.082310E+02   2.201011E+02   3.761108E+01   1.815956E+01   5.096188E+00   7.414751E+00   5.993281E+00   5.088927E+00   1.492823E+01   2.155754E+01   8.330686E+01
   1.738990E+01   1.849445E+01   1.273370E+01   2.903565E+01   2.504242E+01   1.389282E+01   4.991909E+00   5.376121E+01   1.085317E+02   5.512544E+01   3.058295E+01   2.700093E+01   1.952738E+01   1.467183E+01   6.160312E+00   1.017751E+01   1.012743E+01   2.054491E+01   1.608090E+01   1.481270E+01   2.987567E+01   1.775008E+01   2.924256E+01   5.381998E+01   1.300350E+02   9.210822E+01   1.008657E+02   5.890890E+01   7.464065E+01   9.923823E+01   4.431693E+01   1.366893E+02   1.219481E+02   9.895252E+01   4.391508E+01   5.259559E+01   3.481235E+01   2.821230E+01   2.976681E+01   3.669148E+01   5.669180E+01   1.306240E+02   3.492431E+01   6.136385E+01   4.594752E+01   1.844012E+01   5.774153E+00   9.407811E+00   1.207328E+01   8.907824E+00   1.945097E+01   1.257469E+01   1.008648E+01   2.583712E+01   3.079891E+01   5.247449E+01   7.483347E+01   2.311309E+01   2.417080E+01   4.091823E+01   3.600778E+01   2.653361E+01   2.140319E+01   2.819346E+01   2.248069E+01   1.803392E+01   2.565431E+01   4.126308E+01   1.219998E+02   3.940959E+01   1.611063E+01   7.403274E+00   1.713873E+01   4.321949E+00   1.504641E+01   2.357558E+01   4.029377E+01   8.042992E+01   4.286681E+01   2.687102E+01   2.025060E+01   1.146133E+01   9.458269E+00   3.018015E+01   4.595230E+01   4.949138E+01   2.479593E+01   1.771810E+01   8.349499E+00   6.730426E+00   6.730426E+00   5.058442E+00   1.136543E+01   1.136543E+01   9.459412E+00   3.072174E+01   3.072174E+01   3.304099E+01   3.304099E+01   3.304099E+01   1.193262E+01   1.193262E+01   1.193262E+01   2.567074E+01   2.567074E+01   2.567074E+01   2.567074E+01   2.567074E+01   3.822993E+01   3.822993E+01   3.822993E+01   3.822993E+01   3.822993E+01   3.092575E+01   3.092575E+01   3.092575E+01   3.092575E+01   3.092575E+01   3.092575E+01   3.092575E+01   1.214558E+01   1.214558E+01   1.214558E+01   1.214558E+01   1.214558E+01   1.214558E+01   1.214558E+01   1.214558E+01   1.214558E+01   1.214558E+01   2.901455E+01   2.901455E+01   2.901455E+01   2.901455E+01   2.901455E+01   2.901455E+01   2.901455E+01   2.901455E+01   2.901455E+01   1.346185E+01   1.346185E+01   1.346185E+01   1.346185E+01   1.346185E+01   1.346185E+01   1.346185E+01   1.110139E+01   1.110139E+01   1.110139E+01   1.110139E+01   1.110139E+01   1.294727E+01   1.294727E+01   1.294727E+01   1.294727E+01   7.313090E+01   7.313090E+01   7.313090E+01   7.928228E+01   7.928228E+01   3.398419E+01   3.398419E+01   2.453389E+01   2.453389E+01   9.709404E+00   1.660821E+01   2.414005E+01   2.414005E+01   4.863987E+01   1.525100E+02   9.937543E+01   6.340800E+01   3.230556E+01   3.627032E+01   1.176426E+01   1.132018E+01   6.367162E+00   8.258627E+00   1.056301E+01   1.277433E+01   2.788449E+01   3.880299E+01   1.557061E+01   1.590371E+01   2.431084E+01   1.007016E+02   6.200536E+01   5.464713E+01   7.713717E+01   4.824073E+01   1.379016E+01   1.668172E+01   2.371400E+01   1.748069E+01   3.548758E+01   6.197207E+01   1.421644E+02   1.411273E+02   3.163946E+01   1.416051E+01   4.516320E+00   7.684195E+00   1.017443E+01   5.641444E+00   1.356815E+01   2.319705E+01   5.891954E+01
   1.781237E+01   1.951514E+01   8.266852E+00   5.221310E+01   2.439605E+01   2.148705E+01   2.844571E+01   1.069727E+02   1.339111E+02   1.192470E+02   2.435106E+01   8.498908E+00   1.485612E+01   1.019799E+01   3.896209E+00   7.848313E+00   1.643249E+01   2.867076E+01   1.348947E+01   1.731030E+01   2.351727E+01   1.510666E+01   1.525142E+01   1.161134E+02   2.400293E+02   1.299223E+02   3.715797E+01   5.452112E+01   3.942695E+01   1.649715E+02   9.258331E+01   8.225906E+01   6.517509E+01   5.722832E+01   5.101596E+01   3.298343E+01   3.057201E+01   2.407469E+01   4.035352E+01   1.247625E+02   8.486818E+01   1.217051E+02   6.465704E+01   3.315899E+01   1.212404E+01   1.048565E+01   6.581907E+00   1.209575E+01   1.684089E+01   8.623219E+00   9.784080E+00   5.119444E+00   6.288848E+00   1.395277E+01   1.155846E+01   9.584273E+01   1.411144E+02   4.115414E+01   2.288849E+01   2.416438E+01   4.379741E+01   1.625697E+01   2.304543E+01   1.844220E+01   1.268162E+01   3.793976E+01   2.843733E+01   2.152675E+01   6.932610E+01   5.222460E+01   1.329087E+01   1.152484E+01   1.480220E+01   1.028954E+01   1.405016E+01   3.663957E+01   7.894539E+01   1.972532E+02   6.736766E+01   2.370763E+01   3.868987E+01   2.052013E+01   2.032204E+01   6.330019E+01   3.850853E+01   4.332492E+01   2.709692E+01   1.799635E+01   9.391617E+00   7.625899E+00   7.625899E+00   7.359293E+00   1.621079E+01   1.621079E+01   1.643442E+01   1.979891E+01   1.979891E+01   1.537216E+01   1.537216E+01   1.537216E+01   1.521078E+01   1.521078E+01   1.521078E+01   1.995502E+01   1.995502E+01   1.995502E+01   1.995502E+01   1.995502E+01   2.931559E+01   2.931559E+01   2.931559E+01   2.931559E+01   2.931559E+01   3.252006E+01   3.252006E+01   3.252006E+01   3.252006E+01   3.252006E+01   3.252006E+01   3.252006E+01   1.788421E+01   1.788421E+01   1.788421E+01   1.788421E+01   1.788421E+01   1.788421E+01   1.788421E+01   1.788421E+01   1.788421E+01   1.788421E+01   6.197648E+01   6.197648E+01   6.197648E+01   6.197648E+01   6.197648E+01   6.197648E+01   6.197648E+01   6.197648E+01   6.197648E+01   2.263849E+01   2.263849E+01   2.263849E+01   2.263849E+01   2.263849E+01   2.263849E+01   2.263849E+01   3.089396E+01   3.089396E+01   3.089396E+01   3.089396E+01   3.089396E+01   2.821578E+01   2.821578E+01   2.821578E+01   2.821578E+01   4.134150E+01   4.134150E+01   4.134150E+01   8.718166E+01   8.718166E+01   4.854992E+01   4.854992E+01   2.839755E+01   2.839755E+01   9.312381E+00   1.512336E+01   1.622654E+01   1.622654E+01   5.125875E+01   1.638922E+02   1.576009E+02   2.635620E+01   1.079452E+01   9.182721E+00   8.500639E+00   4.980249E+00   6.154222E+00   6.009120E+00   1.049891E+01   1.864856E+01   2.395753E+01   2.882636E+01   1.303407E+01   1.965789E+01   2.159555E+01   3.817445E+01   5.424123E+01   5.766874E+01   4.799672E+01   6.841846E+01   2.390223E+01   1.332100E+01   1.548618E+01   2.826761E+01   8.344257E+01   5.680508E+01   9.808128E+01   1.104170E+02   3.102703E+01   1.028249E+01   2.024453E+00   8.588333E+00   1.231328E+01   3.596589E+00   8.344418E+00   2.721786E+01   6.259238E+01
   2.829190E+01   1.589647E+01   7.009377E+00   1.495129E+01   1.554614E+01   1.332115E+01   4.876054E+01   8.242863E+01   2.523680E+02   8.504886E+01   2.338849E+01   1.753152E+01   2.087991E+01   2.787411E+01   1.029257E+01   5.768500E+00   1.603796E+01   1.789127E+01   1.646160E+01   1.357520E+01   4.436598E+01   1.178687E+01   3.731951E+01   1.251886E+02   1.501332E+02   1.317954E+02   3.589135E+01   2.850709E+01   2.448480E+01   1.028901E+02   8.062347E+01   8.101092E+01   4.731370E+01   9.122501E+01   3.094213E+01   2.189734E+01   1.982121E+01   2.515965E+01   2.478251E+01   1.026698E+02   1.002349E+02   8.652899E+01   3.274743E+01   2.651575E+01   8.021394E+00   5.213257E+00   9.103940E+00   1.380420E+01   1.375453E+01   1.176496E+01   5.508763E+00   5.587196E+00   3.968935E+00   1.239366E+01   8.677552E+00   5.889103E+01   1.989612E+02   1.056929E+02   6.681570E+01   3.882010E+01   3.787141E+01   2.709672E+01   1.981178E+01   3.336576E+01   2.070875E+01   1.255168E+01   2.281618E+01   2.047300E+01   1.064379E+02   7.630688E+01   2.039868E+01   2.458404E+01   1.957547E+01   3.760612E+01   1.523759E+01   3.203635E+01   1.963752E+01   7.951481E+01   4.242060E+01   6.337480E+01   2.848108E+01   2.448260E+01   2.221132E+01   1.037244E+02   7.125941E+01   4.747065E+01   1.693060E+01   1.703942E+01   1.691665E+01   1.382362E+01   1.382362E+01   8.898533E+00   1.215938E+01   1.215938E+01   2.102401E+01   2.013340E+01   2.013340E+01   7.240281E+00   7.240281E+00   7.240281E+00   9.644533E+00   9.644533E+00   9.644533E+00   2.905923E+01   2.905923E+01   2.905923E+01   2.905923E+01   2.905923E+01   2.510573E+01   2.510573E+01   2.510573E+01   2.510573E+01   2.510573E+01   2.928808E+01   2.928808E+01   2.928808E+01   2.928808E+01   2.928808E+01   2.928808E+01   2.928808E+01   5.262615E+01   5.262615E+01   5.262615E+01   5.262615E+01   5.262615E+01   5.262615E+01   5.262615E+01   5.262615E+01   5.262615E+01   5.262615E+01   6.681952E+01   6.681952E+01   6.681952E+01   6.681952E+01   6.681952E+01   6.681952E+01   6.681952E+01   6.681952E+01   6.681952E+01   5.381768E+01   5.381768E+01   5.381768E+01   5.381768E+01   5.381768E+01   5.381768E+01   5.381768E+01   2.158146E+01   2.158146E+01   2.158146E+01   2.158146E+01   2.158146E+01   2.573556E+01   2.573556E+01   2.573556E+01   2.573556E+01   3.894779E+01   3.894779E+01   3.894779E+01   9.276916E+01   9.276916E+01   1.077335E+02   1.077335E+02   3.014720E+01   3.014720E+01   1.916596E+01   1.440569E+01   1.564179E+01   1.564179E+01   7.520875E+01   1.997283E+02   1.901915E+02   1.890472E+01   1.091394E+01   8.538831E+00   1.030141E+01   1.893795E+01   6.983917E+00   1.032646E+01   4.948165E+00   6.661033E+00   2.043501E+01   2.212734E+01   3.136023E+01   7.571024E+01   2.934054E+01   1.804302E+01   4.712704E+01   6.363012E+01   4.014211E+01   4.738409E+01   4.046605E+01   1.116079E+01   2.835499E+01   3.386502E+01   2.277315E+01   2.704297E+01   5.690440E+01   6.912436E+01   1.622965E+01   7.982388E+00   3.976179E+00   3.665949E+00   1.489386E+01   7.155693E+00   7.753601E+00   1.915362E+01   2.146759E+01
   3.193317E+01   1.488313E+01   8.820579E+00   1.222205E+01   1.786918E+01   1.807848E+01   1.000135E+02   4.956638E+01   2.133605E+02   6.944888E+01   1.170270E+01   1.546873E+01   9.734971E+00   2.550485E+01   1.655744E+01   7.008979E+00   1.070578E+01   2.027461E+01   2.025284E+01   2.628670E+01   3.089389E+01   1.579722E+01   3.903173E+01   1.627889E+02   3.677681E+01   5.093312E+01   4.929671E+01   2.701258E+01   2.145088E+01   7.524625E+01   5.230491E+01   7.612218E+01   5.276613E+01   2.464799E+01   1.122532E+01   1.644871E+01   1.680277E+01   2.828730E+01   3.328471E+01   4.851162E+01   6.324827E+01   9.792751E+01   2.944585E+01   1.783039E+01   6.325102E+00   4.236838E+00   8.073746E+00   1.386020E+01   1.236989E+01   1.362896E+01   9.750367E+00   4.491003E+00   2.874652E+00   3.174505E+00   5.947062E+00   4.175632E+01   1.375075E+02   2.570581E+02   7.806357E+01   4.033565E+01   3.183532E+01   2.352300E+01   1.625188E+01   1.356507E+01   1.293980E+01   6.081008E+00   2.285294E+01   6.603535E+01   1.117080E+02   6.802655E+01   2.767901E+01   3.240046E+01   3.081560E+01   5.593672E+01   2.145285E+01   2.338623E+01   2.100444E+01   2.855248E+01   2.532574E+01   5.735512E+01   3.573684E+01   2.334207E+01   2.052404E+01   4.750200E+01   1.694702E+02   7.207092E+01   2.053967E+01   3.301476E+01   5.079691E+01   1.792670E+01   1.792670E+01   1.311099E+01   1.029599E+01   1.029599E+01   2.105174E+01   1.194669E+01   1.194669E+01   1.378613E+01   1.378613E+01   1.378613E+01   9.016587E+00   9.016587E+00   9.016587E+00   5.027699E+01   5.027699E+01   5.027699E+01   5.027699E+01   5.027699E+01   1.906610E+01   1.906610E+01   1.906610E+01   1.906610E+01   1.906610E+01   1.531042E+01   1.531042E+01   1.531042E+01   1.531042E+01   1.531042E+01   1.531042E+01   1.531042E+01   4.525142E+01   4.525142E+01   4.525142E+01   4.525142E+01   4.525142E+01   4.525142E+01   4.525142E+01   4.525142E+01   4.525142E+01   4.525142E+01   3.944877E+01   3.944877E+01   3.944877E+01   3.944877E+01   3.944877E+01   3.944877E+01   3.944877E+01   3.944877E+01   3.944877E+01   4.999479E+01   4.999479E+01   4.999479E+01   4.999479E+01   4.999479E+01   4.999479E+01   4.999479E+01   1.642856E+01   1.642856E+01   1.642856E+01   1.642856E+01   1.642856E+01   2.306086E+01   2.306086E+01   2.306086E+01   2.306086E+01   6.338770E+01   6.338770E+01   6.338770E+01   5.250256E+01   5.250256E+01   7.607301E+01   7.607301E+01   6.244611E+01   6.244611E+01   1.482542E+01   2.612366E+01   2.958890E+01   2.958890E+01   7.413046E+01   9.949781E+01   1.323718E+02   9.607325E+00   1.786919E+01   7.083133E+00   4.596597E+00   4.846169E+00   5.065301E+00   8.743119E+00   6.647546E+00   2.317997E+00   2.172488E+01   5.490318E+01   3.587292E+01   3.739544E+01   2.621726E+01   2.475953E+01   4.860620E+01   5.822043E+01   4.783584E+01   4.820288E+01   5.693618E+01   8.665271E+00   1.987217E+01   3.597733E+01   1.944777E+01   2.124862E+01   3.776191E+01   6.197936E+01   1.455068E+01   1.439898E+01   4.319995E+00   2.855394E+00   1.453300E+01   1.061694E+01   1.081462E+01   4.714576E+01   3.407770E+01
   2.337226E+01   8.872128E+00   8.301985E+00   4.712137E+00   6.225921E+00   1.522663E+01   8.823783E+01   3.489269E+01   8.195303E+01   4.587081E+01   1.794469E+01   1.959236E+01   1.158840E+01   2.558081E+01   1.019604E+01   1.307297E+01   1.234146E+01   1.704630E+01   2.103214E+01   1.599170E+01   2.720503E+01   5.494968E+01   6.103037E+01   1.548591E+02   8.161093E+01   5.937183E+01   3.803343E+01   5.924279E+01   2.802866E+01   3.307782E+01   4.613717E+01   9.098711E+01   5.017794E+01   3.277447E+01   2.535078E+01   1.748875E+01   7.309045E+00   2.523271E+01   2.682940E+01   6.167780E+01   4.964358E+01   7.232712E+01   3.758155E+01   8.410984E+00   4.345765E+00   7.041472E+00   8.626627E+00   1.233315E+01   2.901558E+01   7.144243E+00   5.725193E+00   3.344441E+00   3.387811E+00   3.833644E+00   7.293968E+00   3.123371E+01   1.859536E+02   3.016536E+02   1.035108E+02   5.675880E+01   2.643666E+01   2.287598E+01   1.809934E+01   1.109806E+01   9.037130E+00   2.037504E+01   1.726445E+01   1.017261E+02   2.013060E+02   1.664587E+02   9.053867E+01   5.900614E+01   3.498641E+01   4.617083E+01   2.892424E+01   1.776140E+01   1.791740E+01   2.265916E+01   1.335507E+01   3.247548E+01   2.303264E+01   2.154638E+01   3.056017E+01   7.767939E+01   1.818940E+02   7.602562E+01   6.823402E+01   7.229662E+01   4.211837E+01   1.651210E+01   1.651210E+01   7.413155E+00   7.073758E+00   7.073758E+00   1.902303E+01   1.407540E+01   1.407540E+01   2.294592E+01   2.294592E+01   2.294592E+01   1.937441E+01   1.937441E+01   1.937441E+01   2.638415E+01   2.638415E+01   2.638415E+01   2.638415E+01   2.638415E+01   1.654026E+01   1.654026E+01   1.654026E+01   1.654026E+01   1.654026E+01   1.166527E+01   1.166527E+01   1.166527E+01   1.166527E+01   1.166527E+01   1.166527E+01   1.166527E+01   5.678672E+01   5.678672E+01   5.678672E+01   5.678672E+01   5.678672E+01   5.678672E+01   5.678672E+01   5.678672E+01   5.678672E+01   5.678672E+01   4.585761E+01   4.585761E+01   4.585761E+01   4.585761E+01   4.585761E+01   4.585761E+01   4.585761E+01   4.585761E+01   4.585761E+01   1.679358E+01   1.679358E+01   1.679358E+01   1.679358E+01   1.679358E+01   1.679358E+01   1.679358E+01   7.954349E+00   7.954349E+00   7.954349E+00   7.954349E+00   7.954349E+00   1.446936E+01   1.446936E+01   1.446936E+01   1.446936E+01   4.786934E+01   4.786934E+01   4.786934E+01   3.209948E+01   3.209948E+01   4.922178E+01   4.922178E+01   1.371209E+02   1.371209E+02   3.868835E+01   2.890932E+01   2.156903E+01   2.156903E+01   8.482361E+01   1.259877E+02   5.574287E+01   3.766237E+01   1.824720E+01   1.021454E+01   3.674058E+00   5.158182E+00   7.581319E+00   4.225276E+00   2.718785E+00   5.046040E+00   1.291184E+01   6.321050E+01   5.225911E+01   3.475137E+01   2.065761E+01   2.552688E+01   1.019737E+02   7.762951E+01   5.030045E+01   4.184151E+01   3.799258E+01   2.211927E+01   1.406683E+01   2.556942E+01   2.580980E+01   1.367013E+01   3.686168E+01   3.950267E+01   1.517223E+01   2.097387E+01   9.845669E+00   6.525059E+00   7.209462E+00   9.828770E+00   9.674578E+00   8.969676E+01   8.022157E+01