# LPF package for  MODFLOW-2005, generated by Flopy.
        53    -1E+30         0  
         1
         0
   0.000000E+00
         0
         0
INTERNAL               1 (207E15.6) -1 #hk layer 1                    
   8.542843E+01   8.048914E+01   2.170800E+01   2.454845E+01   2.423780E+01   4.094986E+01   3.073547E+01   1.966260E+01   1.736110E+01   4.655691E+01   5.079383E+01   5.444158E+01   4.315227E+01   2.990943E+01   1.384816E+01   1.849968E+01   2.796463E+01   4.247868E+01   2.547070E+01   7.408527E+01   6.050324E+01   8.485934E+01   2.634642E+02   1.932446E+02   1.502347E+02   2.064634E+02   5.996455E+01   7.538584E+01   1.224671E+02   6.126529E+01   2.882358E+01   6.796901E+01   5.764533E+01   4.097943E+01   7.431664E+01   1.268942E+02   4.251777E+01   1.408282E+01   6.736456E+00   3.164555E+00   4.283844E+00   4.927521E+00   2.418785E+01   2.674935E+01   1.778173E+01   2.032679E+01   4.359599E+00   4.457268E+00   3.540573E+00   6.425336E+00   3.515639E+01   2.277700E+01   2.064100E+01   3.917912E+01   2.894536E+01   6.840314E+01   2.692493E+01   3.746840E+01   4.908441E+01   6.780179E+01   2.887613E+01   3.811628E+01   1.063330E+02   8.114786E+01   9.369320E+01   6.186521E+01   1.866947E+01   2.709195E+01   3.760799E+01   9.497296E+01   5.942653E+01   4.590805E+01   4.383451E+01   2.433418E+01   6.776932E+01   2.078996E+02   1.042829E+02   8.221859E+01   6.276360E+01   9.323728E+01   7.608047E+01   7.517178E+01   5.627971E+01   9.893463E+01   6.685963E+01   9.614608E+01   7.032039E+01   5.085078E+01   4.945235E+01   1.641540E+01   1.641540E+01   3.102690E+01   2.928099E+01   2.928099E+01   3.876856E+01   2.278589E+01   2.278589E+01   1.254947E+02   1.254947E+02   1.254947E+02   9.767026E+01   9.767026E+01   9.767026E+01   7.485627E+01   7.485627E+01   7.485627E+01   7.485627E+01   7.485627E+01   2.547401E+01   2.547401E+01   2.547401E+01   2.547401E+01   2.547401E+01   2.722676E+01   2.722676E+01   2.722676E+01   2.722676E+01   2.722676E+01   2.722676E+01   2.722676E+01   1.788887E+01   1.788887E+01   1.788887E+01   1.788887E+01   1.788887E+01   1.788887E+01   1.788887E+01   1.788887E+01   1.788887E+01   1.788887E+01   2.323632E+01   2.323632E+01   2.323632E+01   2.323632E+01   2.323632E+01   2.323632E+01   2.323632E+01   2.323632E+01   2.323632E+01   2.467818E+01   2.467818E+01   2.467818E+01   2.467818E+01   2.467818E+01   2.467818E+01   2.467818E+01   8.347386E+01   8.347386E+01   8.347386E+01   8.347386E+01   8.347386E+01   1.034227E+02   1.034227E+02   1.034227E+02   1.034227E+02   5.490322E+01   5.490322E+01   5.490322E+01   3.723713E+01   3.723713E+01   2.256081E+01   2.256081E+01   4.727540E+01   4.727540E+01   1.312706E+01   1.068563E+01   8.490781E+00   8.490781E+00   1.021223E+01   3.203252E+01   4.816156E+01   4.332185E+01   5.194814E+01   1.786322E+01   1.466608E+01   4.457454E+01   5.224265E+01   6.641254E+01   6.496143E+01   5.469861E+01   2.817134E+01   3.546343E+01   5.923732E+01   5.927517E+01   4.017122E+01   2.523157E+01   4.879758E+01   9.612553E+01   9.240465E+01   2.151640E+01   7.012720E+01   4.006544E+01   4.424482E+01   4.573349E+01   7.251854E+00   1.101050E+01   1.213342E+01   8.635669E+00   1.629440E+01   6.510961E+01   5.812115E+01   1.220710E+02   7.361897E+01   6.208479E+01   6.714941E+01   2.649711E+01   4.206547E+01
   8.072777E+01   1.096166E+02   7.335137E+01   4.812107E+01   7.728305E+01   6.650747E+01   2.570916E+01   1.843956E+01   4.847646E+01   9.240230E+01   6.124079E+01   7.626517E+01   4.152111E+01   7.804874E+01   2.197186E+01   7.345307E+00   2.256803E+01   5.503083E+01   2.955254E+01   5.360727E+01   1.548058E+02   9.348146E+01   1.908252E+02   1.906146E+02   3.847136E+02   1.313696E+02   1.014409E+02   4.374526E+01   3.935518E+01   2.541520E+01   4.029124E+01   7.306490E+01   6.788291E+01   4.527192E+01   1.526364E+02   5.147478E+01   4.877459E+01   1.607417E+01   5.342155E+00   3.697004E+00   2.031217E+00   6.017303E+00   1.361532E+01   7.482929E+01   3.093590E+01   1.409117E+01   1.251051E+01   6.357327E+00   1.147190E+01   7.580803E+00   3.023381E+01   2.726144E+01   1.547248E+01   2.407168E+01   2.245838E+01   3.709897E+01   6.363650E+01   2.156652E+01   3.761242E+01   3.670354E+01   3.895908E+01   4.484010E+01   8.480864E+01   5.697021E+01   5.579791E+01   2.665210E+01   1.112975E+01   3.174434E+01   2.954022E+01   1.030060E+02   5.039139E+01   3.281272E+01   1.862777E+01   1.477458E+01   3.728535E+01   4.546394E+01   1.143360E+02   1.139680E+02   8.187929E+01   1.217392E+02   1.429598E+02   1.170293E+02   7.340362E+01   6.327938E+01   7.776302E+01   7.159691E+01   5.904374E+01   4.096368E+01   1.620949E+01   3.826104E+01   3.826104E+01   2.641472E+01   4.113442E+01   4.113442E+01   4.697534E+01   1.286395E+02   1.286395E+02   1.193099E+02   1.193099E+02   1.193099E+02   1.466797E+02   1.466797E+02   1.466797E+02   6.764760E+01   6.764760E+01   6.764760E+01   6.764760E+01   6.764760E+01   3.116595E+01   3.116595E+01   3.116595E+01   3.116595E+01   3.116595E+01   1.265726E+01   1.265726E+01   1.265726E+01   1.265726E+01   1.265726E+01   1.265726E+01   1.265726E+01   1.602152E+01   1.602152E+01   1.602152E+01   1.602152E+01   1.602152E+01   1.602152E+01   1.602152E+01   1.602152E+01   1.602152E+01   1.602152E+01   1.272358E+01   1.272358E+01   1.272358E+01   1.272358E+01   1.272358E+01   1.272358E+01   1.272358E+01   1.272358E+01   1.272358E+01   1.844470E+01   1.844470E+01   1.844470E+01   1.844470E+01   1.844470E+01   1.844470E+01   1.844470E+01   5.673646E+01   5.673646E+01   5.673646E+01   5.673646E+01   5.673646E+01   1.139984E+02   1.139984E+02   1.139984E+02   1.139984E+02   6.938200E+01   6.938200E+01   6.938200E+01   1.835757E+01   1.835757E+01   1.705935E+01   1.705935E+01   3.356120E+01   3.356120E+01   7.213417E+00   4.986269E+00   8.594194E+00   8.594194E+00   9.487556E+00   5.408824E+01   6.740028E+01   1.043021E+02   1.345173E+02   1.989140E+01   1.500268E+01   5.961532E+01   2.277497E+02   7.205421E+01   4.489289E+01   6.371533E+01   5.875603E+01   3.533185E+01   2.459244E+01   3.072403E+01   4.398092E+01   3.377322E+01   4.945419E+01   7.081001E+01   1.117518E+02   5.489770E+01   4.124120E+01   3.419537E+01   3.820371E+01   5.648243E+01   1.239391E+01   7.849603E+00   9.887851E+00   1.664553E+01   1.554437E+01   3.055844E+01   7.527314E+01   9.351389E+01   8.073130E+01   3.961268E+01   1.410544E+02   6.798699E+01   4.667955E+01
   7.918046E+01   8.807639E+01   2.502950E+01   3.527483E+01   3.536604E+01   3.982734E+01   1.715425E+01   1.948615E+01   5.505601E+01   3.538087E+01   3.611217E+01   7.621794E+01   5.558604E+01   2.047210E+02   8.008124E+01   1.067459E+01   1.227619E+01   3.239305E+01   5.170265E+01   3.922128E+01   5.625544E+01   6.851054E+01   2.703211E+02   3.189181E+02   3.648300E+02   5.438163E+01   1.775302E+01   1.173297E+01   2.030051E+01   4.351411E+01   7.765434E+01   5.430344E+01   8.283105E+01   5.724445E+01   9.759263E+01   8.039093E+01   2.996390E+01   1.839388E+01   8.657587E+00   7.996563E+00   4.494769E+00   5.743209E+00   2.360898E+01   3.391931E+01   2.748454E+01   2.374302E+01   1.036145E+01   1.509683E+01   1.867874E+01   2.338098E+01   3.754684E+01   4.382977E+01   1.259551E+01   2.310616E+01   3.912434E+01   3.841776E+01   1.110753E+02   5.316814E+01   3.128855E+01   3.907726E+01   4.345211E+01   7.067110E+01   1.722309E+02   6.797437E+01   2.987817E+01   1.898899E+01   2.944086E+01   5.165628E+01   2.073432E+01   3.698691E+01   3.431819E+01   5.388813E+01   1.724735E+01   7.452157E+00   1.565139E+01   4.489952E+01   1.151476E+02   1.139131E+02   1.068463E+02   5.862211E+01   9.398246E+01   1.895011E+02   7.693376E+01   5.802748E+01   5.409066E+01   3.429330E+01   5.524907E+01   2.822368E+01   3.100858E+01   7.974724E+01   7.974724E+01   4.784718E+01   6.622684E+01   6.622684E+01   3.679594E+01   2.119712E+02   2.119712E+02   9.245670E+01   9.245670E+01   9.245670E+01   8.641530E+01   8.641530E+01   8.641530E+01   7.185774E+01   7.185774E+01   7.185774E+01   7.185774E+01   7.185774E+01   1.627143E+01   1.627143E+01   1.627143E+01   1.627143E+01   1.627143E+01   1.360192E+01   1.360192E+01   1.360192E+01   1.360192E+01   1.360192E+01   1.360192E+01   1.360192E+01   2.230704E+01   2.230704E+01   2.230704E+01   2.230704E+01   2.230704E+01   2.230704E+01   2.230704E+01   2.230704E+01   2.230704E+01   2.230704E+01   1.002701E+01   1.002701E+01   1.002701E+01   1.002701E+01   1.002701E+01   1.002701E+01   1.002701E+01   1.002701E+01   1.002701E+01   1.238419E+01   1.238419E+01   1.238419E+01   1.238419E+01   1.238419E+01   1.238419E+01   1.238419E+01   4.180771E+01   4.180771E+01   4.180771E+01   4.180771E+01   4.180771E+01   1.162971E+02   1.162971E+02   1.162971E+02   1.162971E+02   5.674559E+01   5.674559E+01   5.674559E+01   2.720927E+01   2.720927E+01   3.805876E+01   3.805876E+01   2.639497E+01   2.639497E+01   7.504793E+00   3.273095E+00   9.739316E+00   9.739316E+00   1.891662E+01   4.219127E+01   1.099015E+02   8.273640E+01   6.274751E+01   9.217817E+01   4.425391E+01   9.924297E+01   3.386987E+02   1.323796E+02   7.083812E+01   4.064938E+01   5.440968E+01   2.808839E+01   3.996744E+01   4.034451E+01   3.118339E+01   1.498626E+01   6.091619E+01   5.017232E+01   1.060713E+02   3.654595E+01   2.008528E+01   3.764959E+01   4.119436E+01   5.086803E+01   3.910558E+01   2.811212E+01   2.896259E+01   3.873257E+01   1.147334E+01   4.455499E+01   1.562386E+02   4.536998E+02   1.117626E+02   5.770373E+01   1.950661E+02   8.897588E+01   5.794952E+01
   4.171338E+01   1.192633E+02   3.177273E+01   1.457426E+02   3.878307E+01   3.717561E+01   1.626230E+01   2.594439E+01   7.971441E+01   6.157101E+01   4.079784E+01   1.377278E+02   1.015757E+02   4.239351E+02   8.751163E+01   2.700127E+01   2.755466E+01   1.868158E+01   4.087453E+01   2.114986E+01   3.865113E+01   1.058340E+02   3.829262E+02   2.564442E+02   2.023238E+02   4.421236E+01   6.483643E+00   5.295419E+00   2.188150E+01   7.337411E+01   8.006263E+01   4.459543E+01   5.635644E+01   8.102663E+01   1.358264E+02   1.133268E+02   5.299178E+01   3.283742E+01   6.766067E+00   4.812431E+00   1.531409E+01   6.931292E+00   3.218994E+01   2.899710E+01   3.163783E+01   3.376428E+01   2.061448E+01   8.133164E+01   6.317167E+01   3.044860E+01   3.819028E+01   2.734852E+01   1.334621E+01   1.400127E+01   4.983308E+01   6.727572E+01   1.838493E+02   1.018363E+02   3.968343E+01   1.794146E+01   3.404074E+01   2.674165E+01   9.842822E+01   5.364176E+01   4.397044E+01   1.246020E+01   1.766479E+01   2.300881E+01   1.194693E+01   2.649624E+01   3.976600E+01   5.654915E+01   2.226769E+01   1.500368E+01   1.534523E+01   6.724512E+01   1.922468E+02   1.951384E+02   1.979427E+02   1.159363E+02   5.212683E+01   9.434870E+01   8.114905E+01   9.909066E+01   6.267317E+01   4.090741E+01   5.126997E+01   2.933947E+01   4.093568E+01   4.539574E+01   4.539574E+01   4.531593E+01   4.590018E+01   4.590018E+01   6.743468E+01   5.608697E+01   5.608697E+01   6.986169E+01   6.986169E+01   6.986169E+01   2.890935E+01   2.890935E+01   2.890935E+01   8.326822E+01   8.326822E+01   8.326822E+01   8.326822E+01   8.326822E+01   1.450466E+01   1.450466E+01   1.450466E+01   1.450466E+01   1.450466E+01   1.336100E+01   1.336100E+01   1.336100E+01   1.336100E+01   1.336100E+01   1.336100E+01   1.336100E+01   2.861906E+01   2.861906E+01   2.861906E+01   2.861906E+01   2.861906E+01   2.861906E+01   2.861906E+01   2.861906E+01   2.861906E+01   2.861906E+01   9.418633E+00   9.418633E+00   9.418633E+00   9.418633E+00   9.418633E+00   9.418633E+00   9.418633E+00   9.418633E+00   9.418633E+00   1.113444E+01   1.113444E+01   1.113444E+01   1.113444E+01   1.113444E+01   1.113444E+01   1.113444E+01   3.720446E+01   3.720446E+01   3.720446E+01   3.720446E+01   3.720446E+01   7.811554E+01   7.811554E+01   7.811554E+01   7.811554E+01   3.134409E+01   3.134409E+01   3.134409E+01   3.289732E+01   3.289732E+01   3.471516E+01   3.471516E+01   1.546381E+01   1.546381E+01   5.928556E+00   5.532367E+00   4.257586E+00   4.257586E+00   1.035591E+01   7.682478E+01   1.322429E+02   1.942534E+02   1.282635E+02   1.027128E+02   5.447594E+01   7.634576E+01   2.412465E+02   9.056178E+01   9.062207E+01   3.144827E+01   7.068871E+01   2.756546E+01   1.441811E+01   4.712285E+01   3.065213E+01   2.473935E+01   5.120304E+01   5.427686E+01   7.071471E+01   5.046240E+01   2.282923E+01   7.804527E+01   4.158540E+01   6.527948E+01   7.323722E+01   1.139193E+02   3.715783E+01   6.284921E+01   4.132910E+01   7.469762E+01   1.942913E+02   2.671596E+02   2.129770E+02   5.609707E+01   6.019188E+01   5.895386E+01   5.898355E+01
   4.557204E+01   8.083155E+01   4.940184E+01   1.080795E+02   2.554755E+01   2.148949E+01   2.142773E+01   7.861960E+00   3.630396E+01   6.032235E+01   3.135690E+01   1.172254E+02   1.678677E+02   5.096923E+02   1.329615E+02   2.013507E+01   2.657730E+01   5.527028E+01   2.582512E+01   1.751739E+01   4.512167E+01   1.243045E+02   3.111546E+02   4.951860E+02   1.757827E+02   5.078175E+01   9.388926E+00   1.117418E+01   9.724997E+00   4.029997E+01   9.282621E+01   7.717915E+01   7.083387E+01   8.122906E+01   7.803300E+01   4.449954E+01   4.408309E+01   3.030796E+01   7.951196E+00   7.356072E+00   2.714475E+01   2.038466E+01   3.329510E+01   1.098677E+01   1.968207E+01   3.528886E+01   4.930060E+01   6.936826E+01   5.664047E+01   7.695470E+01   4.841281E+01   4.497190E+01   2.117427E+01   1.161149E+01   2.498536E+01   7.467006E+01   1.485384E+02   4.217967E+01   1.003374E+02   6.183503E+01   1.618597E+01   2.507646E+01   5.949127E+01   2.930390E+01   2.687096E+01   1.362289E+01   2.261039E+01   2.189698E+01   1.612493E+01   5.370224E+01   8.241209E+01   7.784339E+01   2.578260E+01   2.204392E+01   1.828950E+01   3.217553E+01   1.598988E+02   1.264938E+02   1.243784E+02   8.830732E+01   3.896373E+01   8.264253E+01   1.255263E+02   1.094501E+02   4.414839E+01   5.132961E+01   3.809383E+01   3.833454E+01   4.814096E+01   4.036452E+01   4.036452E+01   8.470083E+01   9.455855E+01   9.455855E+01   1.123000E+02   4.266617E+01   4.266617E+01   5.538749E+01   5.538749E+01   5.538749E+01   2.177979E+01   2.177979E+01   2.177979E+01   6.227924E+01   6.227924E+01   6.227924E+01   6.227924E+01   6.227924E+01   3.488958E+01   3.488958E+01   3.488958E+01   3.488958E+01   3.488958E+01   1.213306E+01   1.213306E+01   1.213306E+01   1.213306E+01   1.213306E+01   1.213306E+01   1.213306E+01   3.195950E+01   3.195950E+01   3.195950E+01   3.195950E+01   3.195950E+01   3.195950E+01   3.195950E+01   3.195950E+01   3.195950E+01   3.195950E+01   2.405567E+01   2.405567E+01   2.405567E+01   2.405567E+01   2.405567E+01   2.405567E+01   2.405567E+01   2.405567E+01   2.405567E+01   1.550538E+01   1.550538E+01   1.550538E+01   1.550538E+01   1.550538E+01   1.550538E+01   1.550538E+01   5.717685E+01   5.717685E+01   5.717685E+01   5.717685E+01   5.717685E+01   7.377245E+01   7.377245E+01   7.377245E+01   7.377245E+01   3.440487E+01   3.440487E+01   3.440487E+01   4.723712E+01   4.723712E+01   1.478659E+01   1.478659E+01   9.037569E+00   9.037569E+00   4.289232E+00   3.825868E+00   1.020425E+01   1.020425E+01   1.966489E+01   2.575422E+02   2.790393E+02   2.109881E+02   1.107666E+02   1.224853E+02   1.873498E+02   1.058435E+02   2.089438E+02   1.389671E+02   8.281565E+01   6.103239E+01   1.989704E+01   3.546870E+01   1.027666E+01   1.923931E+01   1.773356E+01   4.915112E+01   1.257792E+02   1.234235E+02   5.372381E+01   2.215121E+01   2.929267E+01   1.155575E+02   4.339034E+01   4.483607E+01   6.404469E+01   9.513850E+01   5.307461E+01   3.065608E+01   1.062522E+02   1.011447E+02   1.343592E+02   2.412975E+02   6.270973E+01   2.850753E+01   4.052063E+01   1.012313E+02   8.750792E+01
   4.849416E+01   2.846311E+01   3.463625E+01   6.424033E+01   1.466984E+01   8.369652E+00   2.912989E+01   7.380776E+00   9.863884E+00   8.640756E+01   3.897812E+01   9.846976E+01   2.663144E+02   3.671404E+02   1.437340E+02   4.495769E+01   1.548177E+01   2.225081E+01   2.293813E+01   2.452337E+01   8.016376E+01   1.107324E+02   2.911039E+02   4.876770E+02   1.427841E+02   2.454831E+01   2.095968E+01   2.028668E+01   1.262873E+01   5.896005E+01   8.734301E+01   9.380997E+01   1.233559E+02   1.487391E+02   1.902090E+02   9.183121E+01   5.599152E+01   2.487160E+01   1.541749E+01   2.571219E+01   3.105751E+01   2.653009E+01   4.573175E+01   1.724197E+01   3.027651E+01   8.279156E+01   1.325949E+02   1.759088E+02   5.007096E+01   2.235280E+02   8.691396E+01   4.956213E+01   3.926923E+01   1.561179E+01   1.709697E+01   9.233551E+01   6.039700E+01   3.803689E+01   5.887045E+01   1.558788E+02   5.422009E+01   4.716836E+01   7.839260E+01   5.170724E+01   2.277695E+01   2.274834E+01   3.060105E+01   2.565478E+01   1.439184E+01   3.213960E+01   5.563947E+01   7.433030E+01   2.589098E+01   1.519998E+01   1.712696E+01   9.588957E+00   9.663017E+01   2.688792E+02   1.429211E+02   4.534878E+01   3.919690E+01   4.925601E+01   9.242455E+01   3.758794E+01   4.082147E+01   3.168657E+01   3.510999E+01   2.548878E+01   2.686873E+01   4.026154E+01   4.026154E+01   4.688190E+01   2.290630E+02   2.290630E+02   9.844885E+01   2.832483E+01   2.832483E+01   5.340691E+01   5.340691E+01   5.340691E+01   6.297720E+01   6.297720E+01   6.297720E+01   5.383147E+01   5.383147E+01   5.383147E+01   5.383147E+01   5.383147E+01   9.496006E+01   9.496006E+01   9.496006E+01   9.496006E+01   9.496006E+01   2.936673E+01   2.936673E+01   2.936673E+01   2.936673E+01   2.936673E+01   2.936673E+01   2.936673E+01   4.287850E+01   4.287850E+01   4.287850E+01   4.287850E+01   4.287850E+01   4.287850E+01   4.287850E+01   4.287850E+01   4.287850E+01   4.287850E+01   2.064080E+01   2.064080E+01   2.064080E+01   2.064080E+01   2.064080E+01   2.064080E+01   2.064080E+01   2.064080E+01   2.064080E+01   2.459069E+01   2.459069E+01   2.459069E+01   2.459069E+01   2.459069E+01   2.459069E+01   2.459069E+01   6.312498E+01   6.312498E+01   6.312498E+01   6.312498E+01   6.312498E+01   1.142366E+02   1.142366E+02   1.142366E+02   1.142366E+02   2.494758E+01   2.494758E+01   2.494758E+01   4.493035E+01   4.493035E+01   1.044720E+01   1.044720E+01   2.817836E+01   2.817836E+01   4.376196E+00   8.667305E+00   1.041844E+01   1.041844E+01   2.457043E+01   1.731929E+02   2.354828E+02   2.782561E+02   1.429599E+02   2.604347E+02   1.535531E+02   1.327276E+02   1.103078E+02   8.658099E+01   8.712930E+01   6.653055E+01   2.428821E+01   1.541434E+01   1.710042E+01   8.408718E+00   5.720505E+00   4.185168E+01   3.236145E+02   1.643596E+02   5.712822E+01   1.844856E+01   1.938918E+01   2.165695E+01   2.935190E+01   5.340095E+01   1.150984E+02   8.784012E+01   3.513525E+01   3.537875E+01   1.879463E+02   1.175133E+02   1.989068E+02   1.631665E+02   4.838530E+01   4.880659E+01   4.961806E+01   1.690415E+02   9.955482E+01
   2.938702E+01   3.612585E+01   2.064893E+01   2.342899E+01   8.929610E+00   6.016801E+00   3.911177E+01   7.280895E+00   1.713909E+01   4.029038E+01   1.142854E+02   8.727231E+01   1.321270E+02   2.186227E+02   7.668249E+01   3.083857E+01   1.491185E+01   2.314614E+01   1.996310E+01   1.170414E+01   7.612981E+01   1.692343E+02   2.544324E+02   3.953065E+02   1.978560E+02   6.355122E+01   3.388401E+01   2.352174E+01   2.826144E+01   4.666171E+01   6.419491E+01   7.389362E+01   7.129774E+01   5.775900E+01   1.367999E+02   6.428671E+01   2.881287E+01   1.070827E+01   5.821054E+00   2.108504E+01   2.681189E+01   2.437966E+01   3.549890E+01   2.896209E+01   7.000027E+01   1.108690E+02   2.525303E+02   2.244685E+02   1.352296E+02   3.489818E+02   1.668892E+02   7.211828E+01   5.205133E+01   2.529044E+01   2.451382E+01   6.433800E+01   6.383417E+01   6.841928E+01   9.562225E+01   2.405297E+02   9.835313E+01   5.863683E+01   8.232217E+01   1.743027E+01   1.380250E+01   4.705913E+01   6.557907E+01   1.894240E+01   1.601842E+01   2.664010E+01   2.807708E+01   6.023388E+01   9.154023E+01   2.055793E+01   1.725290E+01   9.867638E+00   3.561120E+01   3.296979E+02   8.679523E+01   7.092533E+01   4.444047E+01   5.149139E+01   3.745967E+01   3.549047E+01   3.178015E+01   2.017485E+01   2.333692E+01   2.669510E+01   4.412349E+01   6.986275E+01   6.986275E+01   5.409495E+01   1.544264E+02   1.544264E+02   1.501704E+02   5.625710E+01   5.625710E+01   4.497177E+01   4.497177E+01   4.497177E+01   6.020920E+01   6.020920E+01   6.020920E+01   4.333358E+01   4.333358E+01   4.333358E+01   4.333358E+01   4.333358E+01   7.399774E+01   7.399774E+01   7.399774E+01   7.399774E+01   7.399774E+01   3.750335E+01   3.750335E+01   3.750335E+01   3.750335E+01   3.750335E+01   3.750335E+01   3.750335E+01   3.972532E+01   3.972532E+01   3.972532E+01   3.972532E+01   3.972532E+01   3.972532E+01   3.972532E+01   3.972532E+01   3.972532E+01   3.972532E+01   3.580236E+01   3.580236E+01   3.580236E+01   3.580236E+01   3.580236E+01   3.580236E+01   3.580236E+01   3.580236E+01   3.580236E+01   1.427724E+01   1.427724E+01   1.427724E+01   1.427724E+01   1.427724E+01   1.427724E+01   1.427724E+01   4.383747E+01   4.383747E+01   4.383747E+01   4.383747E+01   4.383747E+01   7.895829E+01   7.895829E+01   7.895829E+01   7.895829E+01   2.338292E+01   2.338292E+01   2.338292E+01   3.758561E+01   3.758561E+01   1.287866E+01   1.287866E+01   2.462334E+01   2.462334E+01   2.914252E+00   5.740378E+00   1.251480E+01   1.251480E+01   5.172159E+01   1.944449E+02   2.634766E+02   1.727021E+02   9.694882E+01   1.776816E+02   1.990265E+02   8.202404E+01   9.001518E+01   9.180096E+01   8.690643E+01   5.343176E+01   2.236171E+01   4.035123E+01   2.450885E+01   9.086024E+00   6.091588E+00   1.740022E+01   1.249430E+02   9.419742E+01   5.414864E+01   2.875891E+01   4.474551E+01   2.379753E+01   5.572425E+01   8.795881E+01   7.045378E+01   5.568031E+01   5.046060E+01   7.867027E+01   1.422843E+02   1.271138E+02   7.891051E+01   1.205456E+02   9.910283E+01   1.613777E+01   4.107553E+01   8.596419E+01   5.809387E+01
   5.016481E+01   6.976186E+01   1.884057E+01   2.235105E+01   2.010891E+01   2.477267E+01   3.071328E+01   1.048561E+01   2.759976E+01   7.103524E+01   1.169057E+02   1.090372E+02   5.737865E+01   1.608586E+02   5.204543E+01   1.544023E+01   6.144275E+00   1.080512E+01   1.912952E+01   1.730725E+01   1.722261E+02   2.024225E+02   4.486029E+02   3.557437E+02   1.166234E+02   7.223464E+01   3.511745E+01   3.733538E+01   4.181343E+01   1.057999E+02   6.128819E+01   1.906981E+01   3.423494E+01   1.439668E+02   2.377676E+02   7.456373E+01   2.445971E+01   6.040349E+00   6.807547E+00   1.407140E+01   2.982723E+01   4.168142E+01   4.285997E+01   5.874553E+01   1.013880E+02   1.147244E+02   3.028356E+02   1.811773E+02   2.212140E+02   3.652391E+02   7.205005E+01   5.407380E+01   4.746127E+01   2.492377E+01   3.353091E+01   3.634276E+01   1.588458E+02   1.262549E+02   1.327010E+02   9.880264E+01   6.942027E+01   3.958845E+01   1.946278E+01   1.799860E+01   2.131280E+01   7.352164E+01   1.177936E+02   4.755954E+01   3.129918E+01   2.373116E+01   4.366027E+01   5.440538E+01   5.349369E+01   3.321239E+01   1.179536E+01   1.073093E+01   5.039804E+01   5.573202E+01   1.068419E+02   7.226617E+01   2.028287E+01   2.463968E+01   3.042761E+01   2.567769E+01   5.672059E+01   7.376264E+00   1.005681E+01   2.061986E+01   3.623288E+01   3.703468E+01   3.703468E+01   1.806270E+01   5.025992E+01   5.025992E+01   1.028384E+02   2.843529E+01   2.843529E+01   3.779644E+01   3.779644E+01   3.779644E+01   4.517839E+01   4.517839E+01   4.517839E+01   6.442195E+01   6.442195E+01   6.442195E+01   6.442195E+01   6.442195E+01   6.670176E+01   6.670176E+01   6.670176E+01   6.670176E+01   6.670176E+01   7.780354E+01   7.780354E+01   7.780354E+01   7.780354E+01   7.780354E+01   7.780354E+01   7.780354E+01   2.109862E+01   2.109862E+01   2.109862E+01   2.109862E+01   2.109862E+01   2.109862E+01   2.109862E+01   2.109862E+01   2.109862E+01   2.109862E+01   1.034331E+01   1.034331E+01   1.034331E+01   1.034331E+01   1.034331E+01   1.034331E+01   1.034331E+01   1.034331E+01   1.034331E+01   1.594731E+01   1.594731E+01   1.594731E+01   1.594731E+01   1.594731E+01   1.594731E+01   1.594731E+01   4.718194E+01   4.718194E+01   4.718194E+01   4.718194E+01   4.718194E+01   1.016757E+02   1.016757E+02   1.016757E+02   1.016757E+02   2.250869E+01   2.250869E+01   2.250869E+01   3.986724E+01   3.986724E+01   2.308137E+01   2.308137E+01   7.108556E+00   7.108556E+00   2.556068E+00   6.043731E+00   4.447851E+00   4.447851E+00   6.159359E+01   1.281600E+02   1.154865E+02   8.396871E+01   8.258459E+01   1.528697E+02   2.402847E+02   2.232302E+02   1.880322E+02   7.039758E+01   1.213847E+02   1.365651E+02   3.771802E+01   2.125141E+01   3.574310E+01   9.909966E+00   4.597449E+00   2.441685E+01   1.093470E+02   5.465416E+01   1.108882E+02   7.388147E+01   6.402242E+01   2.265508E+01   3.258882E+01   7.487823E+01   7.062080E+01   1.021790E+02   5.603886E+01   4.883710E+01   1.035851E+02   8.037675E+01   7.932487E+01   8.712392E+01   5.869234E+01   5.808611E+01   4.068693E+01   8.827694E+01   1.385409E+02
   4.912676E+01   5.659957E+01   5.089575E+01   2.594865E+01   1.921197E+01   2.447564E+01   2.843159E+01   3.164842E+01   3.425185E+01   1.093351E+02   1.681144E+02   1.115539E+02   5.128453E+01   7.513145E+01   2.424019E+01   2.200646E+01   1.396852E+01   1.011843E+01   2.275164E+01   2.309700E+01   5.552985E+01   9.416342E+01   2.400877E+02   2.630701E+02   8.552151E+01   8.834034E+01   3.155851E+01   3.983089E+01   6.410284E+01   1.698466E+02   6.714532E+01   6.636311E+01   1.114010E+02   9.340432E+01   1.382641E+02   9.485656E+01   2.353334E+01   1.276266E+01   9.932368E+00   1.411588E+01   2.849291E+01   2.539912E+01   3.468670E+01   9.615910E+01   5.408746E+01   6.774467E+01   1.840472E+02   1.290165E+02   1.061433E+02   2.877727E+02   4.770625E+01   5.581006E+01   5.072585E+01   2.803408E+01   5.217012E+01   3.593898E+01   8.335492E+01   1.090006E+02   9.388583E+01   7.613957E+01   7.149362E+01   4.662703E+01   4.977436E+01   3.458515E+01   3.256757E+01   1.346437E+02   1.309400E+02   1.358807E+02   1.805084E+01   1.236360E+01   7.548747E+01   6.196349E+01   8.595785E+01   8.388840E+01   1.115653E+01   1.327863E+01   2.450522E+01   4.378399E+01   1.103862E+02   1.806540E+02   5.265451E+01   2.285786E+01   2.511251E+01   2.769633E+01   1.801144E+01   1.129908E+01   9.488578E+00   2.303758E+01   2.348817E+01   4.707112E+01   4.707112E+01   2.671423E+01   1.913976E+01   1.913976E+01   3.585540E+01   1.932280E+01   1.932280E+01   2.719181E+01   2.719181E+01   2.719181E+01   1.670319E+01   1.670319E+01   1.670319E+01   5.977420E+01   5.977420E+01   5.977420E+01   5.977420E+01   5.977420E+01   3.197694E+01   3.197694E+01   3.197694E+01   3.197694E+01   3.197694E+01   5.179180E+01   5.179180E+01   5.179180E+01   5.179180E+01   5.179180E+01   5.179180E+01   5.179180E+01   2.517147E+01   2.517147E+01   2.517147E+01   2.517147E+01   2.517147E+01   2.517147E+01   2.517147E+01   2.517147E+01   2.517147E+01   2.517147E+01   2.359499E+01   2.359499E+01   2.359499E+01   2.359499E+01   2.359499E+01   2.359499E+01   2.359499E+01   2.359499E+01   2.359499E+01   6.336762E+01   6.336762E+01   6.336762E+01   6.336762E+01   6.336762E+01   6.336762E+01   6.336762E+01   1.601082E+02   1.601082E+02   1.601082E+02   1.601082E+02   1.601082E+02   1.268987E+02   1.268987E+02   1.268987E+02   1.268987E+02   7.558684E+01   7.558684E+01   7.558684E+01   6.681558E+01   6.681558E+01   2.383524E+01   2.383524E+01   1.221279E+01   1.221279E+01   1.876861E+00   4.211020E+00   5.629410E+00   5.629410E+00   3.267914E+01   1.245560E+02   1.787702E+02   1.316453E+02   1.422525E+02   8.472205E+01   4.716518E+02   3.163405E+02   5.659589E+02   2.865284E+01   6.036393E+01   6.105009E+01   1.194881E+02   3.881192E+01   2.353314E+01   9.253734E+00   9.385933E+00   4.895370E+01   1.101101E+02   5.593058E+01   1.135944E+02   1.081585E+02   1.954677E+01   3.268892E+01   7.193917E+01   1.213391E+02   1.623751E+02   1.102197E+02   2.292949E+01   2.201971E+01   4.771107E+01   6.115021E+01   1.025739E+02   8.602695E+01   9.234885E+01   6.450101E+01   4.029267E+01   5.517781E+01   7.422552E+01