# Name file for MODPATH 7, generated by Flopy version 3.3.2.
MPBAS      whpa_mp.mpbas
DIS        whpa.dis
HEAD       whpa.hds
BUDGET     whpa.cbc
