# LPF package for  MODFLOW-2005, generated by Flopy.
        53    -1E+30         0  
         1
         0
   0.000000E+00
         0
         0
INTERNAL               1 (207E15.6) -1 #hk layer 1                    
   2.824485E+01   1.653682E+01   2.908683E+01   4.309953E+01   5.751707E+01   6.226935E+01   7.488854E+01   1.688058E+02   2.526575E+02   9.191221E+01   5.631292E+01   8.850807E+01   9.283185E+01   2.701279E+02   1.221295E+02   2.665620E+02   5.880085E+01   9.316864E+01   5.866410E+01   2.755185E+01   3.510920E+01   5.008009E+01   7.839271E+01   1.475459E+02   1.763968E+02   3.904346E+02   8.356243E+02   1.582024E+02   2.186478E+02   8.617941E+01   1.028112E+02   7.367554E+01   1.347352E+02   1.029773E+02   1.470966E+02   4.247976E+01   2.283524E+01   9.202596E+00   1.730939E+01   2.342225E+01   1.513476E+01   1.878052E+01   1.472842E+01   1.313993E+01   2.173621E+01   2.760665E+01   2.949970E+01   3.024016E+01   4.088050E+01   2.637054E+01   5.030188E+01   3.602993E+01   1.167402E+02   5.893340E+01   1.112161E+02   1.378037E+02   1.443568E+02   5.752401E+01   9.080614E+01   3.334165E+02   9.869869E+01   6.725140E+01   8.255524E+01   3.826822E+01   4.559126E+01   3.747203E+01   1.054979E+02   3.955517E+01   4.793623E+01   7.354649E+01   3.828477E+02   1.726714E+02   6.232621E+01   1.130331E+02   1.173301E+02   1.734352E+02   2.368959E+02   2.561599E+02   1.951215E+02   8.502108E+01   1.238923E+02   2.281004E+02   1.363872E+02   2.668925E+02   1.259495E+02   2.505292E+01   6.080923E+01   8.833597E+01   1.696758E+02   7.421152E+01   7.421152E+01   1.010191E+02   7.838235E+01   7.838235E+01   3.820132E+01   3.653202E+01   3.653202E+01   6.223671E+01   6.223671E+01   6.223671E+01   8.901150E+01   8.901150E+01   8.901150E+01   5.446138E+01   5.446138E+01   5.446138E+01   5.446138E+01   5.446138E+01   3.620408E+01   3.620408E+01   3.620408E+01   3.620408E+01   3.620408E+01   5.387243E+01   5.387243E+01   5.387243E+01   5.387243E+01   5.387243E+01   5.387243E+01   5.387243E+01   1.445457E+01   1.445457E+01   1.445457E+01   1.445457E+01   1.445457E+01   1.445457E+01   1.445457E+01   1.445457E+01   1.445457E+01   1.445457E+01   4.253141E+01   4.253141E+01   4.253141E+01   4.253141E+01   4.253141E+01   4.253141E+01   4.253141E+01   4.253141E+01   4.253141E+01   5.966532E+01   5.966532E+01   5.966532E+01   5.966532E+01   5.966532E+01   5.966532E+01   5.966532E+01   1.186214E+02   1.186214E+02   1.186214E+02   1.186214E+02   1.186214E+02   9.336407E+01   9.336407E+01   9.336407E+01   9.336407E+01   1.787662E+02   1.787662E+02   1.787662E+02   5.639997E+01   5.639997E+01   1.945147E+01   1.945147E+01   2.263274E+01   2.263274E+01   5.218486E+01   5.529108E+01   3.412574E+01   3.412574E+01   1.963624E+01   2.255080E+01   5.679783E+01   3.520511E+01   8.380296E+01   9.213727E+01   1.133142E+02   2.200187E+02   3.622226E+02   1.010810E+03   3.133548E+02   2.149462E+02   6.739172E+01   6.676675E+01   7.023641E+01   5.894337E+01   2.753605E+01   3.790260E+01   1.074939E+02   1.947487E+02   1.320964E+02   1.923807E+02   7.551440E+01   8.027108E+01   1.788140E+02   2.910011E+02   1.572067E+02   1.037414E+02   7.677399E+01   8.361440E+01   5.711861E+01   2.095432E+01   1.563203E+01   5.985581E+00   4.000871E+00   9.159636E+00   2.133801E+01   1.916512E+01   2.156267E+01
   4.499026E+01   3.688092E+01   3.307250E+01   4.274340E+01   3.229219E+01   3.580878E+01   9.116315E+01   1.694172E+02   1.187723E+02   2.066824E+02   7.069512E+01   8.316108E+01   9.432179E+01   2.171465E+02   1.582045E+02   3.671721E+02   6.955681E+01   4.257825E+01   2.152897E+01   4.668414E+01   4.722914E+01   4.205895E+01   1.037828E+02   1.582238E+02   1.599094E+02   2.513836E+02   2.687986E+02   1.259940E+02   2.085018E+02   1.271925E+02   8.050556E+01   4.080714E+01   1.817077E+02   9.787771E+01   1.665782E+02   5.606153E+01   4.717663E+01   1.114846E+01   1.970603E+01   1.136426E+01   2.339854E+01   3.845446E+01   4.667938E+01   3.057662E+01   6.673596E+01   3.732103E+01   2.273489E+01   2.682620E+01   7.208891E+01   1.016783E+02   5.663536E+01   4.559284E+01   9.573827E+01   9.917025E+01   4.868242E+01   1.203739E+02   1.166631E+02   4.694979E+01   4.977620E+01   5.433751E+02   1.313281E+02   7.472737E+01   6.556405E+01   4.939664E+01   2.779125E+01   3.420499E+01   2.808278E+01   3.910552E+01   3.553445E+01   6.428856E+01   4.035499E+02   1.222849E+02   1.057990E+02   1.207746E+02   4.391514E+01   8.161789E+01   2.031999E+02   2.139885E+02   2.970030E+02   1.882700E+02   2.596450E+02   1.319071E+02   6.678613E+01   1.644754E+02   2.181827E+02   3.104537E+01   6.074690E+01   3.342999E+01   8.212368E+01   5.648942E+01   5.648942E+01   1.715257E+02   6.650378E+01   6.650378E+01   3.097842E+01   3.500632E+01   3.500632E+01   1.216863E+02   1.216863E+02   1.216863E+02   1.005541E+02   1.005541E+02   1.005541E+02   9.471459E+01   9.471459E+01   9.471459E+01   9.471459E+01   9.471459E+01   3.621009E+01   3.621009E+01   3.621009E+01   3.621009E+01   3.621009E+01   4.054111E+01   4.054111E+01   4.054111E+01   4.054111E+01   4.054111E+01   4.054111E+01   4.054111E+01   1.749672E+01   1.749672E+01   1.749672E+01   1.749672E+01   1.749672E+01   1.749672E+01   1.749672E+01   1.749672E+01   1.749672E+01   1.749672E+01   2.871664E+01   2.871664E+01   2.871664E+01   2.871664E+01   2.871664E+01   2.871664E+01   2.871664E+01   2.871664E+01   2.871664E+01   6.158044E+01   6.158044E+01   6.158044E+01   6.158044E+01   6.158044E+01   6.158044E+01   6.158044E+01   1.358898E+02   1.358898E+02   1.358898E+02   1.358898E+02   1.358898E+02   9.034546E+01   9.034546E+01   9.034546E+01   9.034546E+01   1.025455E+02   1.025455E+02   1.025455E+02   9.759567E+01   9.759567E+01   3.816940E+01   3.816940E+01   1.963529E+01   1.963529E+01   2.605147E+01   2.946453E+01   6.147672E+01   6.147672E+01   2.654152E+01   1.893176E+01   3.532326E+01   2.110626E+01   9.332325E+01   5.425875E+01   8.373356E+01   2.314814E+02   3.669401E+02   1.134605E+03   4.243148E+02   1.556858E+02   1.648473E+02   5.901963E+01   7.203779E+01   1.089319E+02   6.545694E+01   8.305859E+01   7.397122E+01   1.093127E+02   6.375916E+01   2.094989E+02   7.520982E+01   1.033459E+02   2.605337E+02   1.490049E+02   1.060307E+02   6.193562E+01   3.831122E+01   2.169630E+01   1.958713E+01   1.845619E+01   1.709488E+01   6.154006E+00   7.335609E+00   8.374342E+00   1.223399E+01   4.371140E+01   2.992473E+01
   1.121825E+02   4.739847E+01   3.793084E+01   4.614132E+01   3.457124E+01   3.845951E+01   1.055413E+02   1.676107E+02   9.707789E+01   9.302798E+01   1.344223E+02   1.066277E+02   5.444678E+01   3.089223E+02   4.110009E+02   2.239802E+02   9.762238E+01   3.231981E+01   5.858748E+01   1.812565E+01   6.040471E+01   9.548610E+01   8.669424E+01   2.186693E+02   1.525056E+02   2.741424E+02   8.096261E+01   1.582035E+02   2.055963E+02   9.424745E+01   5.154863E+01   8.367291E+01   1.575204E+02   1.374079E+02   1.663971E+02   9.154424E+01   6.532787E+01   1.598793E+01   3.330093E+01   1.286299E+01   3.738653E+01   4.195860E+01   6.493291E+01   6.070177E+01   9.554424E+01   3.468108E+01   2.441562E+01   3.377638E+01   8.733945E+01   1.092237E+02   8.373545E+01   3.748115E+01   4.086587E+01   1.109829E+02   4.994797E+01   3.758081E+01   4.745257E+01   5.774907E+01   8.429473E+01   2.902946E+02   7.011839E+01   4.204838E+01   4.690330E+01   2.605056E+01   2.506770E+01   5.179871E+01   1.133654E+01   2.581664E+01   5.447532E+01   7.105676E+01   1.218547E+02   8.160139E+01   1.268459E+02   5.508569E+01   3.663143E+01   4.598777E+01   2.374317E+02   1.745592E+02   3.318393E+02   1.742138E+02   5.679258E+02   1.395085E+02   5.175985E+01   9.718755E+01   1.193084E+02   1.610830E+01   6.087414E+01   2.576814E+01   3.404963E+01   5.471593E+01   5.471593E+01   7.691116E+01   3.207591E+01   3.207591E+01   5.455628E+01   5.048802E+01   5.048802E+01   6.653659E+01   6.653659E+01   6.653659E+01   1.130446E+02   1.130446E+02   1.130446E+02   1.451709E+02   1.451709E+02   1.451709E+02   1.451709E+02   1.451709E+02   7.814512E+01   7.814512E+01   7.814512E+01   7.814512E+01   7.814512E+01   3.082573E+01   3.082573E+01   3.082573E+01   3.082573E+01   3.082573E+01   3.082573E+01   3.082573E+01   4.659312E+01   4.659312E+01   4.659312E+01   4.659312E+01   4.659312E+01   4.659312E+01   4.659312E+01   4.659312E+01   4.659312E+01   4.659312E+01   1.671282E+01   1.671282E+01   1.671282E+01   1.671282E+01   1.671282E+01   1.671282E+01   1.671282E+01   1.671282E+01   1.671282E+01   1.919577E+01   1.919577E+01   1.919577E+01   1.919577E+01   1.919577E+01   1.919577E+01   1.919577E+01   7.885835E+01   7.885835E+01   7.885835E+01   7.885835E+01   7.885835E+01   1.010755E+02   1.010755E+02   1.010755E+02   1.010755E+02   6.320266E+01   6.320266E+01   6.320266E+01   1.055875E+02   1.055875E+02   2.650733E+01   2.650733E+01   1.360670E+01   1.360670E+01   4.114096E+01   3.486523E+01   7.578076E+01   7.578076E+01   5.497169E+01   4.708570E+01   4.256155E+01   1.115211E+01   4.431032E+01   6.441842E+01   1.294748E+02   1.127779E+02   2.887572E+02   1.085707E+03   3.054729E+02   1.608961E+02   1.971969E+02   6.650710E+01   5.965344E+01   7.702560E+01   1.497026E+02   1.166593E+02   8.680853E+01   4.763391E+01   4.639075E+01   1.719091E+02   8.968904E+01   8.673861E+01   3.184316E+02   1.135755E+02   5.276700E+01   3.409655E+01   2.199608E+01   2.036470E+01   1.880368E+01   1.354610E+01   1.005730E+01   7.833375E+00   9.621207E+00   1.355223E+01   1.164968E+01   5.026189E+01   3.407518E+01
   5.691886E+01   5.028384E+01   4.301122E+01   6.416277E+01   3.344036E+01   4.249551E+01   4.696067E+01   8.475237E+01   1.124064E+02   1.999299E+02   1.944968E+02   4.383685E+01   3.642975E+01   5.488922E+02   2.736614E+02   1.314562E+02   6.751926E+01   5.805523E+01   3.744130E+01   1.476483E+01   2.300709E+01   1.035793E+02   9.784544E+01   1.969961E+02   1.557097E+02   1.492326E+02   6.493459E+01   1.388519E+02   2.070551E+02   1.453967E+02   1.115879E+02   1.374465E+02   1.420224E+02   8.870963E+01   2.444478E+02   2.113122E+02   3.715803E+01   5.048490E+01   4.182333E+01   1.575500E+01   1.600766E+01   5.104087E+01   3.643526E+01   3.551890E+01   5.559834E+01   3.591848E+01   3.067339E+01   7.729092E+01   3.577048E+01   6.289713E+01   1.237027E+02   3.298245E+01   4.224398E+01   7.529468E+01   3.860490E+01   4.380437E+01   2.947552E+01   4.269820E+01   8.837621E+01   2.150968E+02   9.368864E+01   8.361342E+01   3.723063E+01   2.422035E+01   3.104036E+01   1.462338E+01   1.975265E+01   2.342567E+01   4.492269E+01   5.500455E+01   3.162531E+01   4.017426E+01   3.930431E+01   1.639998E+01   3.662428E+01   6.557858E+01   2.110560E+02   2.441383E+02   3.013741E+02   1.834278E+02   2.775209E+02   2.100241E+02   1.322283E+02   8.970533E+01   1.788743E+02   2.129010E+01   4.179781E+01   1.150279E+01   3.893027E+01   4.124173E+01   4.124173E+01   4.282449E+01   5.104496E+01   5.104496E+01   6.444576E+01   9.284904E+01   9.284904E+01   4.712626E+01   4.712626E+01   4.712626E+01   1.106851E+02   1.106851E+02   1.106851E+02   1.521216E+02   1.521216E+02   1.521216E+02   1.521216E+02   1.521216E+02   1.004057E+02   1.004057E+02   1.004057E+02   1.004057E+02   1.004057E+02   4.749456E+01   4.749456E+01   4.749456E+01   4.749456E+01   4.749456E+01   4.749456E+01   4.749456E+01   3.117778E+01   3.117778E+01   3.117778E+01   3.117778E+01   3.117778E+01   3.117778E+01   3.117778E+01   3.117778E+01   3.117778E+01   3.117778E+01   1.194621E+01   1.194621E+01   1.194621E+01   1.194621E+01   1.194621E+01   1.194621E+01   1.194621E+01   1.194621E+01   1.194621E+01   1.434150E+01   1.434150E+01   1.434150E+01   1.434150E+01   1.434150E+01   1.434150E+01   1.434150E+01   6.850357E+01   6.850357E+01   6.850357E+01   6.850357E+01   6.850357E+01   2.616627E+01   2.616627E+01   2.616627E+01   2.616627E+01   3.964125E+01   3.964125E+01   3.964125E+01   8.610397E+01   8.610397E+01   6.600307E+01   6.600307E+01   1.240603E+01   1.240603E+01   8.288220E+01   3.518921E+01   4.596239E+01   4.596239E+01   1.029908E+02   3.033799E+01   2.226227E+01   1.464293E+01   4.026887E+01   5.089198E+01   1.723453E+02   2.482128E+02   2.797786E+02   4.408544E+02   3.077222E+02   1.712692E+02   1.069113E+02   8.000024E+01   8.163937E+01   8.554276E+01   1.061557E+02   4.467007E+01   4.775485E+01   5.376233E+01   2.248122E+01   7.820003E+01   8.933467E+01   9.544263E+01   1.873581E+02   9.785850E+01   6.842224E+01   3.861402E+01   1.794878E+01   1.418733E+01   9.340837E+00   6.819899E+00   1.076617E+01   3.273157E+00   3.719193E+00   1.582323E+01   1.099214E+01   5.349313E+01   6.691576E+01
   3.087818E+01   3.572589E+01   2.798425E+01   5.780085E+01   3.398492E+01   3.585394E+01   8.348279E+01   4.020132E+01   7.623704E+01   7.784724E+01   1.771685E+02   5.492906E+01   1.669551E+02   3.184981E+02   2.150804E+02   1.723278E+02   1.168798E+02   6.555816E+01   3.051927E+01   1.700138E+01   2.212519E+01   1.045117E+02   1.212899E+02   1.206652E+02   1.024848E+02   1.607022E+02   1.322881E+02   9.902531E+01   1.748926E+02   1.482793E+02   1.133967E+02   4.922607E+01   4.898047E+01   1.818000E+02   1.845331E+02   4.448686E+02   1.257564E+02   6.004563E+01   4.536111E+01   2.101530E+01   1.573799E+01   7.908131E+01   1.920898E+02   8.761825E+01   8.134150E+01   7.716975E+01   3.095446E+01   4.093677E+01   6.662476E+01   5.408920E+01   1.213192E+02   1.708400E+02   1.034122E+02   6.186658E+01   6.287996E+01   4.761269E+01   1.482355E+01   6.863387E+01   1.148938E+02   6.661005E+01   1.451647E+02   3.518502E+01   2.400718E+01   3.955930E+01   1.792693E+01   1.044123E+01   1.695592E+01   1.761179E+01   4.933788E+01   5.938774E+01   7.711633E+01   5.089464E+01   3.381375E+01   1.708998E+01   2.165800E+01   1.255520E+02   1.610153E+02   3.299632E+02   1.295730E+02   9.800764E+01   1.019601E+02   2.400848E+02   1.642199E+02   7.061968E+01   8.002779E+01   3.237895E+01   8.565722E+01   2.349299E+01   3.917477E+01   2.649704E+01   2.649704E+01   4.911885E+01   7.867062E+01   7.867062E+01   9.470344E+01   1.275440E+02   1.275440E+02   1.318627E+02   1.318627E+02   1.318627E+02   1.285314E+02   1.285314E+02   1.285314E+02   7.431181E+01   7.431181E+01   7.431181E+01   7.431181E+01   7.431181E+01   6.431699E+01   6.431699E+01   6.431699E+01   6.431699E+01   6.431699E+01   4.571745E+01   4.571745E+01   4.571745E+01   4.571745E+01   4.571745E+01   4.571745E+01   4.571745E+01   6.949033E+01   6.949033E+01   6.949033E+01   6.949033E+01   6.949033E+01   6.949033E+01   6.949033E+01   6.949033E+01   6.949033E+01   6.949033E+01   2.403320E+01   2.403320E+01   2.403320E+01   2.403320E+01   2.403320E+01   2.403320E+01   2.403320E+01   2.403320E+01   2.403320E+01   5.168373E+01   5.168373E+01   5.168373E+01   5.168373E+01   5.168373E+01   5.168373E+01   5.168373E+01   4.258793E+01   4.258793E+01   4.258793E+01   4.258793E+01   4.258793E+01   2.759039E+01   2.759039E+01   2.759039E+01   2.759039E+01   5.334631E+01   5.334631E+01   5.334631E+01   7.147350E+01   7.147350E+01   1.001689E+02   1.001689E+02   4.865087E+01   4.865087E+01   1.250781E+02   5.379602E+01   5.681687E+01   5.681687E+01   8.522363E+01   2.936947E+01   1.781737E+01   1.519635E+01   5.868186E+01   1.122407E+02   1.782791E+02   1.554629E+02   1.656597E+02   5.138104E+02   1.879734E+02   1.022921E+02   2.074496E+02   7.747207E+01   1.197028E+02   8.991177E+01   8.845351E+01   8.581512E+01   1.186803E+02   8.516103E+01   7.615024E+01   5.176648E+01   1.417210E+02   2.496393E+02   2.187736E+02   1.134712E+02   7.295792E+01   4.832559E+01   4.828120E+01   1.849173E+01   6.706184E+00   1.343821E+01   1.212211E+01   3.890919E+00   6.569507E+00   2.454093E+01   1.300767E+01   5.013890E+01   3.339059E+01
   2.304053E+01   2.250150E+01   1.898756E+01   2.587954E+01   3.536119E+01   4.712990E+01   6.899397E+01   3.952154E+01   4.887125E+01   6.823601E+01   1.943041E+02   1.815495E+02   2.251547E+02   8.548792E+01   1.260524E+02   8.672803E+01   1.235449E+02   9.795807E+01   1.718179E+01   1.099519E+01   1.030470E+01   3.710053E+01   6.048145E+01   1.538670E+02   1.130458E+02   1.665116E+02   4.004990E+02   1.043068E+02   1.680529E+02   3.249237E+02   1.457690E+02   6.345169E+01   3.553156E+01   6.157134E+01   1.226198E+02   3.712926E+02   2.093568E+02   4.048760E+01   3.791186E+01   2.483218E+01   5.364888E+01   4.293613E+01   1.311120E+02   1.350330E+02   6.001925E+01   7.599683E+01   5.508911E+01   3.404212E+01   2.309645E+01   2.798619E+01   1.201210E+02   1.664154E+02   1.287674E+02   1.023853E+02   9.088747E+01   2.116666E+01   1.221576E+01   1.056482E+02   1.191409E+02   1.159378E+02   4.205177E+01   4.207337E+01   1.735836E+01   2.043191E+01   1.835106E+01   1.594609E+01   3.275880E+01   3.112635E+01   4.615994E+01   2.878662E+01   4.736771E+01   9.324266E+01   5.427496E+01   1.343242E+01   1.552470E+01   8.420946E+01   2.445511E+02   9.871265E+01   7.371825E+01   9.412518E+01   7.964726E+01   1.236964E+02   1.354262E+02   9.568331E+01   9.563574E+01   4.860025E+01   5.803659E+01   1.734990E+01   4.545137E+01   2.729285E+01   2.729285E+01   5.626676E+01   1.171428E+02   1.171428E+02   2.036770E+02   2.189372E+02   2.189372E+02   3.401324E+02   3.401324E+02   3.401324E+02   9.774879E+01   9.774879E+01   9.774879E+01   9.337052E+01   9.337052E+01   9.337052E+01   9.337052E+01   9.337052E+01   6.587621E+01   6.587621E+01   6.587621E+01   6.587621E+01   6.587621E+01   6.613901E+01   6.613901E+01   6.613901E+01   6.613901E+01   6.613901E+01   6.613901E+01   6.613901E+01   1.172064E+02   1.172064E+02   1.172064E+02   1.172064E+02   1.172064E+02   1.172064E+02   1.172064E+02   1.172064E+02   1.172064E+02   1.172064E+02   1.919046E+01   1.919046E+01   1.919046E+01   1.919046E+01   1.919046E+01   1.919046E+01   1.919046E+01   1.919046E+01   1.919046E+01   1.278101E+02   1.278101E+02   1.278101E+02   1.278101E+02   1.278101E+02   1.278101E+02   1.278101E+02   5.427741E+01   5.427741E+01   5.427741E+01   5.427741E+01   5.427741E+01   2.597112E+01   2.597112E+01   2.597112E+01   2.597112E+01   6.794360E+01   6.794360E+01   6.794360E+01   7.724143E+01   7.724143E+01   1.346209E+02   1.346209E+02   5.199211E+01   5.199211E+01   8.623911E+01   7.062011E+01   1.626132E+02   1.626132E+02   7.274010E+01   5.762334E+01   1.759655E+01   1.924422E+01   1.078414E+02   8.197601E+01   1.865855E+02   3.261129E+02   3.307902E+02   3.891702E+02   7.565997E+01   4.192796E+01   9.916615E+01   1.121316E+02   1.462655E+02   5.284365E+01   7.959767E+01   1.477209E+02   1.034709E+02   1.168666E+02   1.448833E+02   9.558897E+01   1.123797E+02   1.244593E+02   7.730699E+01   8.285601E+01   1.017991E+02   3.683614E+01   4.540487E+01   1.107533E+01   1.041722E+01   4.486041E+01   1.077191E+01   4.314462E+00   5.640995E+00   1.241917E+01   1.126113E+01   3.518898E+01   2.516316E+01
   1.271964E+01   6.891251E+00   7.956121E+00   1.916874E+01   4.707964E+01   4.418299E+01   5.107762E+01   4.981286E+01   2.983051E+01   3.962833E+01   1.261133E+02   1.359469E+02   1.138213E+02   5.269635E+01   5.668759E+01   7.666062E+01   7.481400E+01   6.204963E+01   1.449134E+01   1.971448E+01   5.045350E+00   3.747094E+01   9.339122E+01   1.210710E+02   1.219644E+02   4.381808E+02   5.136039E+02   7.292041E+01   1.301681E+02   3.083490E+02   6.296635E+01   8.016278E+01   1.811113E+02   5.777187E+01   1.903698E+02   4.334510E+02   1.138271E+02   3.663099E+01   2.657755E+01   2.872758E+01   7.480344E+01   8.411275E+01   1.719386E+02   9.642775E+01   4.233356E+01   5.354363E+01   1.060818E+02   2.563621E+01   1.813723E+01   3.633933E+01   1.601267E+02   2.100856E+02   2.062244E+02   1.147417E+02   1.212859E+02   1.734888E+01   1.129809E+01   3.868308E+01   7.472216E+01   5.484501E+01   5.949359E+01   7.304858E+01   3.031152E+01   2.383908E+01   2.144591E+01   3.311868E+01   3.808472E+01   5.059401E+01   4.328198E+01   3.675336E+01   6.259147E+01   1.465975E+02   6.542160E+01   1.357171E+01   9.023782E+00   1.019151E+02   2.241958E+02   1.975529E+02   1.768828E+02   6.650661E+01   1.266298E+02   1.213060E+02   1.683239E+02   5.406260E+01   7.197902E+01   3.387329E+01   3.567505E+01   1.710448E+01   1.990892E+01   3.040051E+01   3.040051E+01   4.267410E+01   8.510840E+01   8.510840E+01   1.063203E+02   1.388348E+02   1.388348E+02   1.623441E+02   1.623441E+02   1.623441E+02   1.104276E+02   1.104276E+02   1.104276E+02   6.958836E+01   6.958836E+01   6.958836E+01   6.958836E+01   6.958836E+01   1.342490E+02   1.342490E+02   1.342490E+02   1.342490E+02   1.342490E+02   6.847043E+01   6.847043E+01   6.847043E+01   6.847043E+01   6.847043E+01   6.847043E+01   6.847043E+01   1.631215E+02   1.631215E+02   1.631215E+02   1.631215E+02   1.631215E+02   1.631215E+02   1.631215E+02   1.631215E+02   1.631215E+02   1.631215E+02   3.548953E+01   3.548953E+01   3.548953E+01   3.548953E+01   3.548953E+01   3.548953E+01   3.548953E+01   3.548953E+01   3.548953E+01   2.074704E+02   2.074704E+02   2.074704E+02   2.074704E+02   2.074704E+02   2.074704E+02   2.074704E+02   6.405112E+01   6.405112E+01   6.405112E+01   6.405112E+01   6.405112E+01   4.169017E+01   4.169017E+01   4.169017E+01   4.169017E+01   4.982848E+01   4.982848E+01   4.982848E+01   3.755775E+01   3.755775E+01   6.680415E+01   6.680415E+01   3.029515E+01   3.029515E+01   4.865806E+01   5.482458E+01   2.288595E+02   2.288595E+02   1.127729E+02   3.077776E+01   1.336200E+01   2.294749E+01   3.356907E+01   7.567886E+01   2.177652E+02   6.161435E+02   3.404025E+02   2.734341E+02   5.532536E+01   4.112597E+01   4.217757E+01   1.395431E+02   7.642209E+01   1.052524E+02   1.588302E+02   4.811412E+02   1.370864E+02   1.401039E+02   1.586434E+02   1.034496E+02   1.715666E+02   2.383430E+02   8.680431E+01   7.920824E+01   5.406989E+01   3.002644E+01   4.758356E+01   1.527938E+01   7.490500E+00   1.805951E+01   9.996293E+00   4.846835E+00   4.791994E+00   5.981723E+00   1.985114E+01   2.859375E+01   4.266079E+01
   2.186107E+01   7.021350E+00   9.402641E+00   1.482650E+01   3.739607E+01   4.845875E+01   4.065024E+01   2.908333E+01   4.880662E+01   7.180668E+01   9.537553E+01   1.656695E+02   6.359043E+01   4.441376E+01   5.492983E+01   5.140836E+01   4.889651E+01   3.722707E+01   2.876702E+01   8.954844E+00   1.016149E+01   3.097134E+01   2.720097E+01   3.783329E+01   6.840503E+01   3.625640E+02   5.018897E+02   8.557191E+01   1.393029E+02   2.144101E+02   8.679160E+01   4.448855E+01   1.690304E+02   1.156478E+02   2.657960E+02   2.249492E+02   1.413131E+02   3.317032E+01   6.151699E+01   4.446305E+01   1.450174E+02   7.625552E+01   2.189768E+02   7.855393E+01   3.715516E+01   6.418483E+01   7.190968E+01   2.157394E+01   1.267441E+01   3.642943E+01   1.107039E+02   1.647911E+02   1.498821E+02   7.882544E+01   1.211073E+02   8.578096E+00   1.256533E+01   3.627272E+01   9.633907E+01   5.618613E+01   9.511526E+01   8.854005E+01   4.323581E+01   1.931805E+01   3.381313E+01   4.046083E+01   3.686108E+01   4.227438E+01   3.871005E+01   4.448477E+01   1.430947E+02   6.771701E+01   6.730797E+01   2.044717E+01   2.158767E+01   5.229685E+01   7.951350E+01   1.039574E+02   1.970693E+02   9.004623E+01   7.091941E+01   1.977193E+02   1.230085E+02   1.072494E+02   8.647701E+01   1.040367E+02   6.127206E+01   5.586823E+01   2.151141E+01   2.159587E+01   2.159587E+01   2.159579E+01   3.788214E+01   3.788214E+01   5.499938E+01   1.195143E+02   1.195143E+02   3.425519E+01   3.425519E+01   3.425519E+01   5.993999E+01   5.993999E+01   5.993999E+01   8.563593E+01   8.563593E+01   8.563593E+01   8.563593E+01   8.563593E+01   1.224249E+02   1.224249E+02   1.224249E+02   1.224249E+02   1.224249E+02   4.310631E+01   4.310631E+01   4.310631E+01   4.310631E+01   4.310631E+01   4.310631E+01   4.310631E+01   6.497046E+01   6.497046E+01   6.497046E+01   6.497046E+01   6.497046E+01   6.497046E+01   6.497046E+01   6.497046E+01   6.497046E+01   6.497046E+01   7.386506E+01   7.386506E+01   7.386506E+01   7.386506E+01   7.386506E+01   7.386506E+01   7.386506E+01   7.386506E+01   7.386506E+01   2.079319E+02   2.079319E+02   2.079319E+02   2.079319E+02   2.079319E+02   2.079319E+02   2.079319E+02   5.679562E+01   5.679562E+01   5.679562E+01   5.679562E+01   5.679562E+01   2.709440E+01   2.709440E+01   2.709440E+01   2.709440E+01   4.523783E+01   4.523783E+01   4.523783E+01   6.749888E+01   6.749888E+01   5.978468E+01   5.978468E+01   3.712180E+01   3.712180E+01   3.396862E+01   9.010299E+01   1.788383E+02   1.788383E+02   1.612646E+02   9.145200E+01   1.606911E+01   1.507126E+01   1.143108E+01   1.165207E+02   2.051641E+02   4.543430E+02   2.248808E+02   2.256873E+02   9.607906E+01   4.018893E+01   5.014587E+01   1.787248E+02   8.199843E+01   5.684579E+01   2.053559E+02   2.704052E+02   1.121999E+02   4.165904E+01   7.010230E+01   1.196681E+02   4.582738E+01   1.941715E+02   1.426719E+02   2.017099E+02   1.174874E+02   3.105779E+01   2.390110E+01   1.758827E+01   5.186444E+00   6.857350E+00   9.815338E+00   8.820868E+00   1.576663E+01   8.663303E+00   9.954974E+00   2.538263E+01   3.202749E+01
   8.415185E+00   5.840653E+00   2.048639E+01   2.103334E+01   1.631947E+01   1.988580E+01   3.247017E+01   4.483648E+01   5.681544E+01   1.014191E+02   1.035124E+02   1.473595E+02   1.799479E+02   3.304482E+01   9.670605E+01   2.294907E+01   3.293578E+01   3.347965E+01   3.729005E+01   1.256226E+01   1.053596E+01   2.097534E+01   2.037689E+01   7.742509E+01   1.911886E+02   3.191611E+02   4.517292E+02   1.061389E+02   2.190576E+02   2.531532E+02   5.551324E+01   4.689324E+01   1.866626E+02   8.189981E+01   2.062070E+02   1.160994E+02   5.885233E+01   5.837500E+01   4.925875E+01   3.751704E+01   9.791960E+01   6.618937E+01   5.872491E+01   5.582458E+01   2.305101E+01   6.814013E+01   2.849780E+01   2.908207E+01   2.636781E+01   5.970837E+01   2.624394E+02   1.962334E+02   2.728697E+02   1.197316E+02   9.522369E+01   3.030924E+01   2.576955E+01   2.117754E+01   5.729011E+01   8.373236E+01   2.718970E+02   2.715417E+02   4.639517E+01   3.537246E+01   4.704649E+01   2.900749E+01   2.296363E+01   4.989323E+01   4.908900E+01   9.103706E+01   1.198499E+02   8.736214E+01   1.127163E+02   5.275760E+01   2.722723E+01   6.376515E+01   1.267546E+02   1.443997E+02   1.556779E+02   1.053969E+02   7.517086E+01   8.682306E+01   1.019873E+02   1.857992E+02   3.648795E+01   1.461389E+02   5.774755E+01   1.118876E+02   2.673548E+01   9.131635E+00   9.131635E+00   1.273305E+01   2.110720E+01   2.110720E+01   5.118016E+01   8.346066E+01   8.346066E+01   6.210661E+01   6.210661E+01   6.210661E+01   5.840579E+01   5.840579E+01   5.840579E+01   8.351736E+01   8.351736E+01   8.351736E+01   8.351736E+01   8.351736E+01   1.627945E+02   1.627945E+02   1.627945E+02   1.627945E+02   1.627945E+02   6.583485E+01   6.583485E+01   6.583485E+01   6.583485E+01   6.583485E+01   6.583485E+01   6.583485E+01   9.724155E+01   9.724155E+01   9.724155E+01   9.724155E+01   9.724155E+01   9.724155E+01   9.724155E+01   9.724155E+01   9.724155E+01   9.724155E+01   1.154459E+02   1.154459E+02   1.154459E+02   1.154459E+02   1.154459E+02   1.154459E+02   1.154459E+02   1.154459E+02   1.154459E+02   2.157001E+02   2.157001E+02   2.157001E+02   2.157001E+02   2.157001E+02   2.157001E+02   2.157001E+02   6.222171E+01   6.222171E+01   6.222171E+01   6.222171E+01   6.222171E+01   8.046395E+01   8.046395E+01   8.046395E+01   8.046395E+01   8.179620E+01   8.179620E+01   8.179620E+01   7.245603E+01   7.245603E+01   5.152564E+01   5.152564E+01   4.931872E+01   4.931872E+01   3.386393E+01   1.322578E+02   2.203420E+02   2.203420E+02   1.476473E+02   6.334202E+01   2.910915E+01   2.136896E+01   1.497414E+01   8.112981E+01   1.559242E+02   1.994386E+02   2.417155E+02   1.368200E+02   9.448434E+01   7.852457E+01   5.909571E+01   1.474884E+02   9.487473E+01   1.218195E+02   3.326050E+02   2.573921E+02   1.024496E+02   4.396645E+01   6.670065E+01   1.088921E+02   2.870273E+01   1.564217E+02   2.405908E+02   2.807939E+02   6.899963E+01   4.722829E+01   2.587488E+01   6.252820E+00   3.316186E+00   1.172108E+01   8.870512E+00   1.413072E+01   1.671198E+01   9.428472E+00   5.304195E+01   1.630483E+01   3.320594E+01