# OC package for  MODFLOW-2005, generated by Flopy.
HEAD PRINT FORMAT   0
HEAD SAVE UNIT    51
DRAWDOWN PRINT FORMAT   0
COMPACT BUDGET AUX

period 1 step 1 
  save head
  print head
  save budget
  print budget

period 2 step 1 
  save head
  print head
  save budget
  print budget

period 2 step 2 
  save head
  print head
  save budget
  print budget

period 2 step 3 
  save head
  print head
  save budget
  print budget

period 2 step 4 
  save head
  print head
  save budget
  print budget

period 2 step 5 
  save head
  print head
  save budget
  print budget

period 2 step 6 
  save head
  print head
  save budget
  print budget

period 2 step 7 
  save head
  print head
  save budget
  print budget

period 2 step 8 
  save head
  print head
  save budget
  print budget

period 2 step 9 
  save head
  print head
  save budget
  print budget

period 2 step 10 
  save head
  print head
  save budget
  print budget

period 2 step 11 
  save head
  print head
  save budget
  print budget

period 2 step 12 
  save head
  print head
  save budget
  print budget

period 2 step 13 
  save head
  print head
  save budget
  print budget

period 2 step 14 
  save head
  print head
  save budget
  print budget

period 2 step 15 
  save head
  print head
  save budget
  print budget

period 2 step 16 
  save head
  print head
  save budget
  print budget

period 2 step 17 
  save head
  print head
  save budget
  print budget

period 2 step 18 
  save head
  print head
  save budget
  print budget

period 2 step 19 
  save head
  print head
  save budget
  print budget

period 2 step 20 
  save head
  print head
  save budget
  print budget

period 2 step 21 
  save head
  print head
  save budget
  print budget

period 2 step 22 
  save head
  print head
  save budget
  print budget

period 2 step 23 
  save head
  print head
  save budget
  print budget

period 2 step 24 
  save head
  print head
  save budget
  print budget

period 2 step 25 
  save head
  print head
  save budget
  print budget

period 2 step 26 
  save head
  print head
  save budget
  print budget

period 2 step 27 
  save head
  print head
  save budget
  print budget

period 2 step 28 
  save head
  print head
  save budget
  print budget

period 2 step 29 
  save head
  print head
  save budget
  print budget

period 2 step 30 
  save head
  print head
  save budget
  print budget

period 2 step 31 
  save head
  print head
  save budget
  print budget

period 2 step 32 
  save head
  print head
  save budget
  print budget

period 2 step 33 
  save head
  print head
  save budget
  print budget

period 2 step 34 
  save head
  print head
  save budget
  print budget

period 2 step 35 
  save head
  print head
  save budget
  print budget

period 2 step 36 
  save head
  print head
  save budget
  print budget

period 2 step 37 
  save head
  print head
  save budget
  print budget

period 2 step 38 
  save head
  print head
  save budget
  print budget

period 2 step 39 
  save head
  print head
  save budget
  print budget

period 2 step 40 
  save head
  print head
  save budget
  print budget

period 2 step 41 
  save head
  print head
  save budget
  print budget

period 2 step 42 
  save head
  print head
  save budget
  print budget

period 2 step 43 
  save head
  print head
  save budget
  print budget

period 2 step 44 
  save head
  print head
  save budget
  print budget

period 2 step 45 
  save head
  print head
  save budget
  print budget

period 2 step 46 
  save head
  print head
  save budget
  print budget

period 2 step 47 
  save head
  print head
  save budget
  print budget

period 2 step 48 
  save head
  print head
  save budget
  print budget

period 2 step 49 
  save head
  print head
  save budget
  print budget

period 2 step 50 
  save head
  print head
  save budget
  print budget

period 2 step 51 
  save head
  print head
  save budget
  print budget

period 2 step 52 
  save head
  print head
  save budget
  print budget

period 2 step 53 
  save head
  print head
  save budget
  print budget

period 2 step 54 
  save head
  print head
  save budget
  print budget

period 2 step 55 
  save head
  print head
  save budget
  print budget

period 2 step 56 
  save head
  print head
  save budget
  print budget

period 2 step 57 
  save head
  print head
  save budget
  print budget

period 2 step 58 
  save head
  print head
  save budget
  print budget

period 2 step 59 
  save head
  print head
  save budget
  print budget

period 2 step 60 
  save head
  print head
  save budget
  print budget

period 2 step 61 
  save head
  print head
  save budget
  print budget

period 2 step 62 
  save head
  print head
  save budget
  print budget

period 2 step 63 
  save head
  print head
  save budget
  print budget

period 2 step 64 
  save head
  print head
  save budget
  print budget

period 2 step 65 
  save head
  print head
  save budget
  print budget

period 2 step 66 
  save head
  print head
  save budget
  print budget

period 2 step 67 
  save head
  print head
  save budget
  print budget

period 2 step 68 
  save head
  print head
  save budget
  print budget

period 2 step 69 
  save head
  print head
  save budget
  print budget

period 2 step 70 
  save head
  print head
  save budget
  print budget

period 2 step 71 
  save head
  print head
  save budget
  print budget

period 2 step 72 
  save head
  print head
  save budget
  print budget

period 2 step 73 
  save head
  print head
  save budget
  print budget

period 2 step 74 
  save head
  print head
  save budget
  print budget

period 2 step 75 
  save head
  print head
  save budget
  print budget

period 2 step 76 
  save head
  print head
  save budget
  print budget

period 2 step 77 
  save head
  print head
  save budget
  print budget

period 2 step 78 
  save head
  print head
  save budget
  print budget

period 2 step 79 
  save head
  print head
  save budget
  print budget

period 2 step 80 
  save head
  print head
  save budget
  print budget

period 2 step 81 
  save head
  print head
  save budget
  print budget

period 2 step 82 
  save head
  print head
  save budget
  print budget

period 2 step 83 
  save head
  print head
  save budget
  print budget

period 2 step 84 
  save head
  print head
  save budget
  print budget

period 2 step 85 
  save head
  print head
  save budget
  print budget

period 2 step 86 
  save head
  print head
  save budget
  print budget

period 2 step 87 
  save head
  print head
  save budget
  print budget

period 2 step 88 
  save head
  print head
  save budget
  print budget

period 2 step 89 
  save head
  print head
  save budget
  print budget

period 2 step 90 
  save head
  print head
  save budget
  print budget

period 2 step 91 
  save head
  print head
  save budget
  print budget

period 2 step 92 
  save head
  print head
  save budget
  print budget

period 2 step 93 
  save head
  print head
  save budget
  print budget

period 2 step 94 
  save head
  print head
  save budget
  print budget

period 2 step 95 
  save head
  print head
  save budget
  print budget

period 2 step 96 
  save head
  print head
  save budget
  print budget

period 2 step 97 
  save head
  print head
  save budget
  print budget

period 2 step 98 
  save head
  print head
  save budget
  print budget

period 2 step 99 
  save head
  print head
  save budget
  print budget

period 2 step 100 
  save head
  print head
  save budget
  print budget

period 2 step 101 
  save head
  print head
  save budget
  print budget

period 2 step 102 
  save head
  print head
  save budget
  print budget

period 2 step 103 
  save head
  print head
  save budget
  print budget

period 2 step 104 
  save head
  print head
  save budget
  print budget

period 2 step 105 
  save head
  print head
  save budget
  print budget

period 2 step 106 
  save head
  print head
  save budget
  print budget

period 2 step 107 
  save head
  print head
  save budget
  print budget

period 2 step 108 
  save head
  print head
  save budget
  print budget

period 2 step 109 
  save head
  print head
  save budget
  print budget

period 2 step 110 
  save head
  print head
  save budget
  print budget

period 2 step 111 
  save head
  print head
  save budget
  print budget

period 2 step 112 
  save head
  print head
  save budget
  print budget

period 2 step 113 
  save head
  print head
  save budget
  print budget

period 2 step 114 
  save head
  print head
  save budget
  print budget

period 2 step 115 
  save head
  print head
  save budget
  print budget

period 2 step 116 
  save head
  print head
  save budget
  print budget

period 2 step 117 
  save head
  print head
  save budget
  print budget

period 2 step 118 
  save head
  print head
  save budget
  print budget

period 2 step 119 
  save head
  print head
  save budget
  print budget

period 2 step 120 
  save head
  print head
  save budget
  print budget

period 2 step 121 
  save head
  print head
  save budget
  print budget

period 2 step 122 
  save head
  print head
  save budget
  print budget

period 2 step 123 
  save head
  print head
  save budget
  print budget

period 2 step 124 
  save head
  print head
  save budget
  print budget

period 2 step 125 
  save head
  print head
  save budget
  print budget

period 2 step 126 
  save head
  print head
  save budget
  print budget

period 2 step 127 
  save head
  print head
  save budget
  print budget

period 2 step 128 
  save head
  print head
  save budget
  print budget

period 2 step 129 
  save head
  print head
  save budget
  print budget

period 2 step 130 
  save head
  print head
  save budget
  print budget

period 2 step 131 
  save head
  print head
  save budget
  print budget

period 2 step 132 
  save head
  print head
  save budget
  print budget

period 2 step 133 
  save head
  print head
  save budget
  print budget

period 2 step 134 
  save head
  print head
  save budget
  print budget

period 2 step 135 
  save head
  print head
  save budget
  print budget

period 2 step 136 
  save head
  print head
  save budget
  print budget

period 2 step 137 
  save head
  print head
  save budget
  print budget

period 2 step 138 
  save head
  print head
  save budget
  print budget

period 2 step 139 
  save head
  print head
  save budget
  print budget

period 2 step 140 
  save head
  print head
  save budget
  print budget

period 2 step 141 
  save head
  print head
  save budget
  print budget

period 2 step 142 
  save head
  print head
  save budget
  print budget

period 2 step 143 
  save head
  print head
  save budget
  print budget

period 2 step 144 
  save head
  print head
  save budget
  print budget

period 2 step 145 
  save head
  print head
  save budget
  print budget

period 2 step 146 
  save head
  print head
  save budget
  print budget

period 2 step 147 
  save head
  print head
  save budget
  print budget

period 2 step 148 
  save head
  print head
  save budget
  print budget

period 2 step 149 
  save head
  print head
  save budget
  print budget

period 2 step 150 
  save head
  print head
  save budget
  print budget

period 2 step 151 
  save head
  print head
  save budget
  print budget

period 2 step 152 
  save head
  print head
  save budget
  print budget

period 2 step 153 
  save head
  print head
  save budget
  print budget

period 2 step 154 
  save head
  print head
  save budget
  print budget

period 2 step 155 
  save head
  print head
  save budget
  print budget

period 2 step 156 
  save head
  print head
  save budget
  print budget

period 2 step 157 
  save head
  print head
  save budget
  print budget

period 2 step 158 
  save head
  print head
  save budget
  print budget

period 2 step 159 
  save head
  print head
  save budget
  print budget

period 2 step 160 
  save head
  print head
  save budget
  print budget

period 2 step 161 
  save head
  print head
  save budget
  print budget

period 2 step 162 
  save head
  print head
  save budget
  print budget

period 2 step 163 
  save head
  print head
  save budget
  print budget

period 2 step 164 
  save head
  print head
  save budget
  print budget

period 2 step 165 
  save head
  print head
  save budget
  print budget

period 2 step 166 
  save head
  print head
  save budget
  print budget

period 2 step 167 
  save head
  print head
  save budget
  print budget

period 2 step 168 
  save head
  print head
  save budget
  print budget

period 2 step 169 
  save head
  print head
  save budget
  print budget

period 2 step 170 
  save head
  print head
  save budget
  print budget

period 2 step 171 
  save head
  print head
  save budget
  print budget

period 2 step 172 
  save head
  print head
  save budget
  print budget

period 2 step 173 
  save head
  print head
  save budget
  print budget

period 2 step 174 
  save head
  print head
  save budget
  print budget

period 2 step 175 
  save head
  print head
  save budget
  print budget

period 2 step 176 
  save head
  print head
  save budget
  print budget

period 2 step 177 
  save head
  print head
  save budget
  print budget

period 2 step 178 
  save head
  print head
  save budget
  print budget

period 2 step 179 
  save head
  print head
  save budget
  print budget

period 2 step 180 
  save head
  print head
  save budget
  print budget

period 2 step 181 
  save head
  print head
  save budget
  print budget

period 2 step 182 
  save head
  print head
  save budget
  print budget

period 2 step 183 
  save head
  print head
  save budget
  print budget

period 2 step 184 
  save head
  print head
  save budget
  print budget

period 2 step 185 
  save head
  print head
  save budget
  print budget

period 2 step 186 
  save head
  print head
  save budget
  print budget

period 2 step 187 
  save head
  print head
  save budget
  print budget

period 2 step 188 
  save head
  print head
  save budget
  print budget

period 2 step 189 
  save head
  print head
  save budget
  print budget

period 2 step 190 
  save head
  print head
  save budget
  print budget

period 2 step 191 
  save head
  print head
  save budget
  print budget

period 2 step 192 
  save head
  print head
  save budget
  print budget

period 2 step 193 
  save head
  print head
  save budget
  print budget

period 2 step 194 
  save head
  print head
  save budget
  print budget

period 2 step 195 
  save head
  print head
  save budget
  print budget

period 2 step 196 
  save head
  print head
  save budget
  print budget

period 2 step 197 
  save head
  print head
  save budget
  print budget

period 2 step 198 
  save head
  print head
  save budget
  print budget

period 2 step 199 
  save head
  print head
  save budget
  print budget

period 2 step 200 
  save head
  print head
  save budget
  print budget

period 2 step 201 
  save head
  print head
  save budget
  print budget

period 2 step 202 
  save head
  print head
  save budget
  print budget

period 2 step 203 
  save head
  print head
  save budget
  print budget

period 2 step 204 
  save head
  print head
  save budget
  print budget

period 2 step 205 
  save head
  print head
  save budget
  print budget

period 2 step 206 
  save head
  print head
  save budget
  print budget

period 2 step 207 
  save head
  print head
  save budget
  print budget

period 2 step 208 
  save head
  print head
  save budget
  print budget

period 2 step 209 
  save head
  print head
  save budget
  print budget

period 2 step 210 
  save head
  print head
  save budget
  print budget

period 2 step 211 
  save head
  print head
  save budget
  print budget

period 2 step 212 
  save head
  print head
  save budget
  print budget

period 2 step 213 
  save head
  print head
  save budget
  print budget

period 2 step 214 
  save head
  print head
  save budget
  print budget

period 2 step 215 
  save head
  print head
  save budget
  print budget

period 2 step 216 
  save head
  print head
  save budget
  print budget

period 2 step 217 
  save head
  print head
  save budget
  print budget

period 2 step 218 
  save head
  print head
  save budget
  print budget

period 2 step 219 
  save head
  print head
  save budget
  print budget

period 2 step 220 
  save head
  print head
  save budget
  print budget

period 2 step 221 
  save head
  print head
  save budget
  print budget

period 2 step 222 
  save head
  print head
  save budget
  print budget

period 2 step 223 
  save head
  print head
  save budget
  print budget

period 2 step 224 
  save head
  print head
  save budget
  print budget

period 2 step 225 
  save head
  print head
  save budget
  print budget

period 2 step 226 
  save head
  print head
  save budget
  print budget

period 2 step 227 
  save head
  print head
  save budget
  print budget

period 2 step 228 
  save head
  print head
  save budget
  print budget

period 2 step 229 
  save head
  print head
  save budget
  print budget

period 2 step 230 
  save head
  print head
  save budget
  print budget

period 2 step 231 
  save head
  print head
  save budget
  print budget

period 2 step 232 
  save head
  print head
  save budget
  print budget

period 2 step 233 
  save head
  print head
  save budget
  print budget

period 2 step 234 
  save head
  print head
  save budget
  print budget

period 2 step 235 
  save head
  print head
  save budget
  print budget

period 2 step 236 
  save head
  print head
  save budget
  print budget

period 2 step 237 
  save head
  print head
  save budget
  print budget

period 2 step 238 
  save head
  print head
  save budget
  print budget

period 2 step 239 
  save head
  print head
  save budget
  print budget

period 2 step 240 
  save head
  print head
  save budget
  print budget

period 2 step 241 
  save head
  print head
  save budget
  print budget

period 2 step 242 
  save head
  print head
  save budget
  print budget

period 2 step 243 
  save head
  print head
  save budget
  print budget

period 2 step 244 
  save head
  print head
  save budget
  print budget

period 2 step 245 
  save head
  print head
  save budget
  print budget

period 2 step 246 
  save head
  print head
  save budget
  print budget

period 2 step 247 
  save head
  print head
  save budget
  print budget

period 2 step 248 
  save head
  print head
  save budget
  print budget

period 2 step 249 
  save head
  print head
  save budget
  print budget

period 2 step 250 
  save head
  print head
  save budget
  print budget

period 2 step 251 
  save head
  print head
  save budget
  print budget

period 2 step 252 
  save head
  print head
  save budget
  print budget

period 2 step 253 
  save head
  print head
  save budget
  print budget

period 2 step 254 
  save head
  print head
  save budget
  print budget

period 2 step 255 
  save head
  print head
  save budget
  print budget

period 2 step 256 
  save head
  print head
  save budget
  print budget

period 2 step 257 
  save head
  print head
  save budget
  print budget

period 2 step 258 
  save head
  print head
  save budget
  print budget

period 2 step 259 
  save head
  print head
  save budget
  print budget

period 2 step 260 
  save head
  print head
  save budget
  print budget

period 2 step 261 
  save head
  print head
  save budget
  print budget

period 2 step 262 
  save head
  print head
  save budget
  print budget

period 2 step 263 
  save head
  print head
  save budget
  print budget

period 2 step 264 
  save head
  print head
  save budget
  print budget

period 2 step 265 
  save head
  print head
  save budget
  print budget

period 2 step 266 
  save head
  print head
  save budget
  print budget

period 2 step 267 
  save head
  print head
  save budget
  print budget

period 2 step 268 
  save head
  print head
  save budget
  print budget

period 2 step 269 
  save head
  print head
  save budget
  print budget

period 2 step 270 
  save head
  print head
  save budget
  print budget

period 2 step 271 
  save head
  print head
  save budget
  print budget

period 2 step 272 
  save head
  print head
  save budget
  print budget

period 2 step 273 
  save head
  print head
  save budget
  print budget

period 2 step 274 
  save head
  print head
  save budget
  print budget

period 2 step 275 
  save head
  print head
  save budget
  print budget

period 2 step 276 
  save head
  print head
  save budget
  print budget

period 2 step 277 
  save head
  print head
  save budget
  print budget

period 2 step 278 
  save head
  print head
  save budget
  print budget

period 2 step 279 
  save head
  print head
  save budget
  print budget

period 2 step 280 
  save head
  print head
  save budget
  print budget

period 2 step 281 
  save head
  print head
  save budget
  print budget

period 2 step 282 
  save head
  print head
  save budget
  print budget

period 2 step 283 
  save head
  print head
  save budget
  print budget

period 2 step 284 
  save head
  print head
  save budget
  print budget

period 2 step 285 
  save head
  print head
  save budget
  print budget

period 2 step 286 
  save head
  print head
  save budget
  print budget

period 2 step 287 
  save head
  print head
  save budget
  print budget

period 2 step 288 
  save head
  print head
  save budget
  print budget

period 2 step 289 
  save head
  print head
  save budget
  print budget

period 2 step 290 
  save head
  print head
  save budget
  print budget

period 2 step 291 
  save head
  print head
  save budget
  print budget

period 2 step 292 
  save head
  print head
  save budget
  print budget

period 2 step 293 
  save head
  print head
  save budget
  print budget

period 2 step 294 
  save head
  print head
  save budget
  print budget

period 2 step 295 
  save head
  print head
  save budget
  print budget

period 2 step 296 
  save head
  print head
  save budget
  print budget

period 2 step 297 
  save head
  print head
  save budget
  print budget

period 2 step 298 
  save head
  print head
  save budget
  print budget

period 2 step 299 
  save head
  print head
  save budget
  print budget

period 2 step 300 
  save head
  print head
  save budget
  print budget

period 3 step 1 
  save head
  print head
  save budget
  print budget

period 3 step 2 
  save head
  print head
  save budget
  print budget

period 3 step 3 
  save head
  print head
  save budget
  print budget

period 3 step 4 
  save head
  print head
  save budget
  print budget

period 3 step 5 
  save head
  print head
  save budget
  print budget

period 3 step 6 
  save head
  print head
  save budget
  print budget

period 3 step 7 
  save head
  print head
  save budget
  print budget

period 3 step 8 
  save head
  print head
  save budget
  print budget

period 3 step 9 
  save head
  print head
  save budget
  print budget

period 3 step 10 
  save head
  print head
  save budget
  print budget

period 3 step 11 
  save head
  print head
  save budget
  print budget

period 3 step 12 
  save head
  print head
  save budget
  print budget

period 3 step 13 
  save head
  print head
  save budget
  print budget

period 3 step 14 
  save head
  print head
  save budget
  print budget

period 3 step 15 
  save head
  print head
  save budget
  print budget

period 3 step 16 
  save head
  print head
  save budget
  print budget

period 3 step 17 
  save head
  print head
  save budget
  print budget

period 3 step 18 
  save head
  print head
  save budget
  print budget

period 3 step 19 
  save head
  print head
  save budget
  print budget

period 3 step 20 
  save head
  print head
  save budget
  print budget

period 3 step 21 
  save head
  print head
  save budget
  print budget

period 3 step 22 
  save head
  print head
  save budget
  print budget

period 3 step 23 
  save head
  print head
  save budget
  print budget

period 3 step 24 
  save head
  print head
  save budget
  print budget

period 3 step 25 
  save head
  print head
  save budget
  print budget

period 3 step 26 
  save head
  print head
  save budget
  print budget

period 3 step 27 
  save head
  print head
  save budget
  print budget

period 3 step 28 
  save head
  print head
  save budget
  print budget

period 3 step 29 
  save head
  print head
  save budget
  print budget

period 3 step 30 
  save head
  print head
  save budget
  print budget

period 3 step 31 
  save head
  print head
  save budget
  print budget

period 3 step 32 
  save head
  print head
  save budget
  print budget

period 3 step 33 
  save head
  print head
  save budget
  print budget

period 3 step 34 
  save head
  print head
  save budget
  print budget

period 3 step 35 
  save head
  print head
  save budget
  print budget

period 3 step 36 
  save head
  print head
  save budget
  print budget

period 3 step 37 
  save head
  print head
  save budget
  print budget

period 3 step 38 
  save head
  print head
  save budget
  print budget

period 3 step 39 
  save head
  print head
  save budget
  print budget

period 3 step 40 
  save head
  print head
  save budget
  print budget

period 3 step 41 
  save head
  print head
  save budget
  print budget

period 3 step 42 
  save head
  print head
  save budget
  print budget

period 3 step 43 
  save head
  print head
  save budget
  print budget

period 3 step 44 
  save head
  print head
  save budget
  print budget

period 3 step 45 
  save head
  print head
  save budget
  print budget

period 3 step 46 
  save head
  print head
  save budget
  print budget

period 3 step 47 
  save head
  print head
  save budget
  print budget

period 3 step 48 
  save head
  print head
  save budget
  print budget

period 3 step 49 
  save head
  print head
  save budget
  print budget

period 3 step 50 
  save head
  print head
  save budget
  print budget

period 3 step 51 
  save head
  print head
  save budget
  print budget

period 3 step 52 
  save head
  print head
  save budget
  print budget

period 3 step 53 
  save head
  print head
  save budget
  print budget

period 3 step 54 
  save head
  print head
  save budget
  print budget

period 3 step 55 
  save head
  print head
  save budget
  print budget

period 3 step 56 
  save head
  print head
  save budget
  print budget

period 3 step 57 
  save head
  print head
  save budget
  print budget

period 3 step 58 
  save head
  print head
  save budget
  print budget

period 3 step 59 
  save head
  print head
  save budget
  print budget

period 3 step 60 
  save head
  print head
  save budget
  print budget

period 3 step 61 
  save head
  print head
  save budget
  print budget

period 3 step 62 
  save head
  print head
  save budget
  print budget

period 3 step 63 
  save head
  print head
  save budget
  print budget

period 3 step 64 
  save head
  print head
  save budget
  print budget

period 3 step 65 
  save head
  print head
  save budget
  print budget

period 3 step 66 
  save head
  print head
  save budget
  print budget

period 3 step 67 
  save head
  print head
  save budget
  print budget

period 3 step 68 
  save head
  print head
  save budget
  print budget

period 3 step 69 
  save head
  print head
  save budget
  print budget

period 3 step 70 
  save head
  print head
  save budget
  print budget

period 3 step 71 
  save head
  print head
  save budget
  print budget

period 3 step 72 
  save head
  print head
  save budget
  print budget

period 3 step 73 
  save head
  print head
  save budget
  print budget

period 3 step 74 
  save head
  print head
  save budget
  print budget

period 3 step 75 
  save head
  print head
  save budget
  print budget

period 3 step 76 
  save head
  print head
  save budget
  print budget

period 3 step 77 
  save head
  print head
  save budget
  print budget

period 3 step 78 
  save head
  print head
  save budget
  print budget

period 3 step 79 
  save head
  print head
  save budget
  print budget

period 3 step 80 
  save head
  print head
  save budget
  print budget

period 3 step 81 
  save head
  print head
  save budget
  print budget

period 3 step 82 
  save head
  print head
  save budget
  print budget

period 3 step 83 
  save head
  print head
  save budget
  print budget

period 3 step 84 
  save head
  print head
  save budget
  print budget

period 3 step 85 
  save head
  print head
  save budget
  print budget

period 3 step 86 
  save head
  print head
  save budget
  print budget

period 3 step 87 
  save head
  print head
  save budget
  print budget

period 3 step 88 
  save head
  print head
  save budget
  print budget

period 3 step 89 
  save head
  print head
  save budget
  print budget

period 3 step 90 
  save head
  print head
  save budget
  print budget

period 3 step 91 
  save head
  print head
  save budget
  print budget

period 3 step 92 
  save head
  print head
  save budget
  print budget

period 3 step 93 
  save head
  print head
  save budget
  print budget

period 3 step 94 
  save head
  print head
  save budget
  print budget

period 3 step 95 
  save head
  print head
  save budget
  print budget

period 3 step 96 
  save head
  print head
  save budget
  print budget

period 3 step 97 
  save head
  print head
  save budget
  print budget

period 3 step 98 
  save head
  print head
  save budget
  print budget

period 3 step 99 
  save head
  print head
  save budget
  print budget

period 3 step 100 
  save head
  print head
  save budget
  print budget

