# LPF package for  MODFLOW-2005, generated by Flopy.
        53    -1E+30         0  
         1
         0
   0.000000E+00
         0
         0
INTERNAL               1 (207E15.6) -1 #hk layer 1                    
   2.793125E+02   2.375208E+02   9.117757E+01   1.553396E+02   9.965739E+01   1.286776E+02   8.206082E+01   3.352299E+01   2.783409E+01   2.689505E+01   3.543483E+01   5.742242E+01   2.639838E+02   1.454474E+02   5.722829E+01   2.851045E+01   7.296854E+01   8.842345E+01   7.473975E+01   1.113441E+02   3.150295E+02   8.857762E+02   4.953207E+02   2.755688E+02   2.793192E+02   3.779673E+02   5.503263E+02   1.548271E+02   5.386509E+01   3.456325E+01   4.698373E+01   5.360509E+01   3.493076E+01   2.343363E+01   7.365536E+01   1.414323E+02   3.902472E+01   2.833686E+01   5.622164E+01   2.145381E+01   2.955474E+01   5.826198E+01   1.127879E+01   4.700555E+01   6.350154E+01   6.483721E+01   1.103302E+02   1.808392E+02   7.371435E+01   2.146533E+01   5.049889E+01   5.517653E+01   2.742500E+01   4.161873E+01   8.714548E+01   1.111474E+02   6.447244E+01   8.207421E+01   1.309360E+02   1.084231E+02   1.019162E+02   3.714029E+02   4.672149E+02   4.399564E+02   5.119168E+02   2.078847E+02   1.716452E+02   1.199227E+02   2.325293E+02   3.182601E+02   3.215836E+02   8.804233E+01   2.221965E+02   1.293927E+02   1.429732E+02   3.725084E+01   6.975980E+01   2.515836E+01   1.148020E+01   7.178827E+00   1.069395E+01   2.394186E+01   2.918161E+01   6.965355E+01   1.068291E+02   1.129190E+02   8.839264E+01   8.161346E+01   9.713614E+01   1.715819E+02   1.715819E+02   2.790481E+02   9.910584E+01   9.910584E+01   4.674923E+01   5.388188E+01   5.388188E+01   1.897821E+02   1.897821E+02   1.897821E+02   2.389162E+02   2.389162E+02   2.389162E+02   2.600189E+02   2.600189E+02   2.600189E+02   2.600189E+02   2.600189E+02   2.865935E+02   2.865935E+02   2.865935E+02   2.865935E+02   2.865935E+02   1.583832E+02   1.583832E+02   1.583832E+02   1.583832E+02   1.583832E+02   1.583832E+02   1.583832E+02   1.519227E+02   1.519227E+02   1.519227E+02   1.519227E+02   1.519227E+02   1.519227E+02   1.519227E+02   1.519227E+02   1.519227E+02   1.519227E+02   2.025018E+02   2.025018E+02   2.025018E+02   2.025018E+02   2.025018E+02   2.025018E+02   2.025018E+02   2.025018E+02   2.025018E+02   6.376491E+01   6.376491E+01   6.376491E+01   6.376491E+01   6.376491E+01   6.376491E+01   6.376491E+01   6.544791E+01   6.544791E+01   6.544791E+01   6.544791E+01   6.544791E+01   2.972126E+01   2.972126E+01   2.972126E+01   2.972126E+01   3.238490E+01   3.238490E+01   3.238490E+01   1.078954E+01   1.078954E+01   3.790640E+01   3.790640E+01   5.266447E+01   5.266447E+01   5.784034E+01   4.019720E+01   5.258459E+01   5.258459E+01   2.754189E+02   1.757663E+02   1.055124E+02   1.101079E+02   2.104701E+01   3.323791E+01   3.027692E+01   3.399368E+01   4.420914E+01   3.298314E+01   8.862277E+01   1.859587E+02   2.279905E+02   1.670397E+02   7.852574E+01   4.271538E+01   3.483674E+01   3.782518E+01   4.101252E+01   8.744253E+01   1.107486E+02   1.941287E+02   4.300960E+02   1.794489E+02   1.559041E+02   3.431449E+02   4.055017E+02   4.664765E+02   2.048653E+02   1.467400E+02   2.219343E+02   4.504406E+02   4.159745E+01   1.033951E+01   1.546511E+01   3.219299E+01   3.643515E+01   7.411229E+01   5.055610E+01
   1.510562E+02   2.564921E+02   8.377931E+01   1.534675E+02   7.124776E+01   1.332769E+02   9.023135E+01   6.068687E+01   2.011905E+01   1.522683E+01   2.352129E+01   1.158433E+02   2.440149E+02   1.028835E+02   6.002990E+01   2.205562E+01   5.133385E+01   1.135782E+02   6.207218E+01   1.630281E+02   1.715518E+02   3.120836E+02   4.502561E+02   3.194520E+02   3.199480E+02   1.640253E+02   3.057502E+02   1.464696E+02   4.884475E+01   6.124645E+01   6.899877E+01   3.371772E+01   3.112395E+01   2.966788E+01   8.936279E+01   1.366593E+02   6.651653E+01   4.902895E+01   3.649512E+01   2.467179E+01   2.090741E+01   4.267237E+01   2.224238E+01   8.265809E+01   1.001191E+02   7.125769E+01   2.155267E+02   1.366109E+02   2.984117E+01   2.445360E+01   2.337171E+01   3.549707E+01   3.974963E+01   4.067097E+01   8.797200E+01   1.263151E+02   6.482643E+01   6.181215E+01   1.262143E+02   6.155364E+01   2.788557E+02   1.035345E+02   1.864614E+02   4.968652E+02   7.586616E+02   1.260093E+02   1.954254E+02   1.280636E+02   2.046379E+02   2.809286E+02   3.922659E+02   2.143442E+02   1.927796E+02   1.129538E+02   1.152766E+02   5.330390E+01   5.547875E+01   1.639777E+01   2.971527E+01   7.845142E+00   1.239450E+01   2.347725E+01   2.873500E+01   5.224266E+01   1.180088E+02   8.349218E+01   1.365682E+02   1.866762E+02   2.579476E+02   1.913465E+02   1.913465E+02   2.492407E+02   1.572361E+02   1.572361E+02   7.981217E+01   8.962460E+01   8.962460E+01   1.028242E+02   1.028242E+02   1.028242E+02   2.295470E+02   2.295470E+02   2.295470E+02   1.197222E+02   1.197222E+02   1.197222E+02   1.197222E+02   1.197222E+02   1.699052E+02   1.699052E+02   1.699052E+02   1.699052E+02   1.699052E+02   1.925051E+02   1.925051E+02   1.925051E+02   1.925051E+02   1.925051E+02   1.925051E+02   1.925051E+02   1.136242E+02   1.136242E+02   1.136242E+02   1.136242E+02   1.136242E+02   1.136242E+02   1.136242E+02   1.136242E+02   1.136242E+02   1.136242E+02   4.659866E+02   4.659866E+02   4.659866E+02   4.659866E+02   4.659866E+02   4.659866E+02   4.659866E+02   4.659866E+02   4.659866E+02   6.163761E+01   6.163761E+01   6.163761E+01   6.163761E+01   6.163761E+01   6.163761E+01   6.163761E+01   4.887521E+01   4.887521E+01   4.887521E+01   4.887521E+01   4.887521E+01   3.896039E+01   3.896039E+01   3.896039E+01   3.896039E+01   3.665430E+01   3.665430E+01   3.665430E+01   1.936778E+01   1.936778E+01   3.940680E+01   3.940680E+01   8.195514E+01   8.195514E+01   4.495592E+01   2.996495E+01   1.300409E+02   1.300409E+02   4.078310E+02   3.078136E+02   1.527560E+02   9.674067E+01   3.453469E+01   4.354081E+01   2.966593E+01   3.763478E+01   3.269280E+01   3.722221E+01   5.689246E+01   1.727623E+02   2.294955E+02   1.014855E+02   1.225994E+02   4.263303E+01   2.989365E+01   2.254398E+01   3.694973E+01   8.435347E+01   4.647810E+01   2.042806E+02   1.084904E+02   1.392927E+02   9.688857E+01   4.064612E+02   3.515233E+02   6.668607E+02   5.016269E+02   3.346335E+02   2.868023E+02   2.531522E+02   3.022770E+01   8.018181E+00   2.676686E+01   3.962020E+01   4.839136E+01   6.756246E+01   1.483569E+02
   2.218012E+02   1.971106E+02   5.741527E+01   1.049070E+02   1.163167E+02   8.325526E+01   9.730896E+01   4.822483E+01   2.186022E+01   6.210386E+00   2.019967E+01   1.841191E+02   2.179187E+02   1.089366E+02   9.729494E+01   3.620432E+01   2.691487E+01   1.000062E+02   8.366627E+01   6.827360E+01   1.729469E+02   3.110749E+02   6.976620E+02   3.273170E+02   2.175359E+02   1.875332E+02   4.059760E+02   2.281348E+02   1.292596E+02   1.261640E+02   5.677488E+01   5.438761E+01   2.838802E+01   3.380194E+01   6.225484E+01   8.625795E+01   7.888335E+01   9.054133E+01   1.403899E+02   5.997974E+01   1.720145E+01   3.161088E+01   5.465981E+01   1.087092E+02   8.538052E+01   8.685580E+01   1.079322E+02   5.429669E+01   4.053304E+01   3.002057E+01   3.928164E+01   3.113572E+01   6.947496E+01   7.123569E+01   9.239409E+01   1.245003E+02   4.679849E+01   5.960348E+01   5.432881E+01   4.846930E+01   1.212760E+02   4.713637E+01   1.057805E+02   4.983251E+02   6.560592E+02   1.527502E+02   2.453455E+02   1.608984E+02   3.480650E+02   2.788684E+02   4.476625E+02   1.963423E+02   5.965806E+02   1.449515E+02   1.485898E+02   3.817753E+01   5.151003E+01   3.079933E+01   1.858156E+01   3.223270E+01   2.862905E+01   5.027906E+01   3.739469E+01   2.778228E+01   4.672682E+01   1.103411E+02   2.831914E+02   6.008651E+02   3.768793E+02   3.491153E+02   3.491153E+02   3.067167E+02   9.105087E+01   9.105087E+01   7.563399E+01   8.062257E+01   8.062257E+01   2.628636E+02   2.628636E+02   2.628636E+02   1.653365E+02   1.653365E+02   1.653365E+02   6.150849E+01   6.150849E+01   6.150849E+01   6.150849E+01   6.150849E+01   9.074245E+01   9.074245E+01   9.074245E+01   9.074245E+01   9.074245E+01   1.363784E+02   1.363784E+02   1.363784E+02   1.363784E+02   1.363784E+02   1.363784E+02   1.363784E+02   1.455361E+02   1.455361E+02   1.455361E+02   1.455361E+02   1.455361E+02   1.455361E+02   1.455361E+02   1.455361E+02   1.455361E+02   1.455361E+02   6.114147E+02   6.114147E+02   6.114147E+02   6.114147E+02   6.114147E+02   6.114147E+02   6.114147E+02   6.114147E+02   6.114147E+02   1.170040E+02   1.170040E+02   1.170040E+02   1.170040E+02   1.170040E+02   1.170040E+02   1.170040E+02   1.066934E+02   1.066934E+02   1.066934E+02   1.066934E+02   1.066934E+02   4.306664E+01   4.306664E+01   4.306664E+01   4.306664E+01   2.698834E+01   2.698834E+01   2.698834E+01   2.441258E+01   2.441258E+01   2.544322E+01   2.544322E+01   7.545684E+01   7.545684E+01   4.149962E+01   3.604454E+01   1.075661E+02   1.075661E+02   1.719531E+02   2.478741E+02   1.820137E+02   2.663411E+01   5.192831E+01   5.530402E+01   1.931327E+01   4.486190E+01   2.256913E+01   1.909288E+01   4.858680E+01   3.427293E+02   4.322216E+02   1.048184E+02   8.719799E+01   3.293306E+01   4.577748E+01   6.189221E+01   5.608708E+01   1.435322E+02   6.860351E+01   6.534963E+01   3.662292E+01   5.814871E+01   7.262594E+01   3.315888E+02   4.168118E+02   6.549874E+02   3.766914E+02   6.636577E+02   2.986264E+02   1.415142E+02   7.342719E+01   8.429742E+00   2.242660E+01   2.624323E+01   3.025357E+01   1.180192E+02   1.715239E+02
   2.469857E+02   1.604434E+02   6.416281E+01   6.110085E+01   5.930749E+01   5.973487E+01   5.769860E+01   6.064904E+01   2.052939E+01   1.175174E+01   2.145893E+01   1.200517E+02   3.704156E+02   3.846294E+02   1.584780E+02   5.402786E+01   3.111890E+01   7.483776E+01   8.652478E+01   1.062928E+02   1.848054E+02   2.243580E+02   4.881701E+02   4.680333E+02   3.198439E+02   4.672783E+02   1.683003E+02   1.663675E+02   1.933949E+02   1.201917E+02   4.263043E+01   3.077669E+01   4.051363E+01   5.735669E+01   7.984570E+01   5.787410E+01   8.322726E+01   2.114739E+02   1.364337E+02   6.005686E+01   2.385016E+01   2.175734E+01   4.624279E+01   5.042012E+01   8.944766E+01   1.233236E+02   1.263795E+02   6.810326E+01   7.776711E+01   9.588402E+01   6.990483E+01   4.438763E+01   5.361686E+01   7.645889E+01   4.549004E+01   4.708882E+01   5.388659E+01   6.056327E+01   2.944614E+01   4.381146E+01   4.009268E+01   4.533556E+01   1.313366E+02   4.219666E+02   1.148843E+03   3.595934E+02   2.372329E+02   2.275136E+02   4.993302E+02   3.956372E+02   4.501573E+02   2.884752E+02   3.223658E+02   1.728365E+02   5.341772E+01   5.659384E+01   3.696880E+01   2.570989E+01   2.369189E+01   8.691803E+01   5.204242E+01   5.036652E+01   3.379547E+01   4.572446E+01   2.996922E+01   7.742772E+01   3.236699E+02   2.139840E+02   4.620599E+02   3.115779E+02   3.115779E+02   3.340679E+02   6.788190E+01   6.788190E+01   6.947028E+01   8.037810E+01   8.037810E+01   9.655544E+01   9.655544E+01   9.655544E+01   1.818758E+02   1.818758E+02   1.818758E+02   8.318467E+01   8.318467E+01   8.318467E+01   8.318467E+01   8.318467E+01   7.763862E+01   7.763862E+01   7.763862E+01   7.763862E+01   7.763862E+01   6.413719E+01   6.413719E+01   6.413719E+01   6.413719E+01   6.413719E+01   6.413719E+01   6.413719E+01   3.451034E+02   3.451034E+02   3.451034E+02   3.451034E+02   3.451034E+02   3.451034E+02   3.451034E+02   3.451034E+02   3.451034E+02   3.451034E+02   6.177155E+02   6.177155E+02   6.177155E+02   6.177155E+02   6.177155E+02   6.177155E+02   6.177155E+02   6.177155E+02   6.177155E+02   2.664922E+02   2.664922E+02   2.664922E+02   2.664922E+02   2.664922E+02   2.664922E+02   2.664922E+02   2.381824E+02   2.381824E+02   2.381824E+02   2.381824E+02   2.381824E+02   4.332988E+01   4.332988E+01   4.332988E+01   4.332988E+01   1.873991E+01   1.873991E+01   1.873991E+01   6.708752E+01   6.708752E+01   3.002554E+01   3.002554E+01   1.336196E+02   1.336196E+02   9.459138E+01   1.536771E+02   1.486049E+02   1.486049E+02   4.238668E+02   2.163866E+02   3.010836E+02   3.691536E+01   1.641119E+02   3.183568E+01   1.185786E+01   3.585093E+01   2.145117E+01   2.186549E+01   5.422853E+01   1.468236E+02   4.232555E+02   1.994214E+02   1.333571E+02   1.022868E+02   1.003639E+02   7.037509E+01   7.032386E+01   7.387006E+01   1.459389E+02   7.744933E+01   4.561401E+01   2.042682E+01   7.198159E+01   1.767142E+02   2.677550E+02   3.550369E+02   2.805295E+02   4.045083E+02   3.526617E+02   9.278436E+01   2.510707E+01   1.816411E+01   1.493238E+01   3.408837E+01   1.161974E+02   1.238087E+02   1.599527E+02
   2.436561E+02   1.293751E+02   9.939032E+01   4.745819E+01   4.081697E+01   1.026796E+02   6.232385E+01   5.177663E+01   2.276824E+01   1.288028E+01   5.179651E+01   8.102532E+01   1.526317E+02   2.556671E+02   2.492134E+02   1.943723E+02   6.461848E+01   7.017558E+01   2.148824E+01   6.708134E+01   1.716936E+02   2.483067E+02   7.803681E+02   5.702067E+02   9.889722E+02   1.163114E+03   1.663752E+02   4.209373E+02   1.278061E+02   2.653494E+02   2.980504E+01   8.662647E+00   4.103697E+01   4.496870E+01   4.475912E+01   1.083388E+02   1.092979E+02   3.405453E+02   1.772799E+02   7.969614E+01   1.765919E+01   2.160448E+01   5.426577E+01   6.902755E+01   1.761549E+02   1.558298E+02   1.772817E+02   9.129993E+01   1.186282E+02   2.857867E+02   1.141326E+02   3.914533E+01   1.316353E+02   9.233109E+01   3.369141E+01   5.526683E+01   8.965395E+01   6.457889E+01   2.585788E+01   3.924895E+01   4.180803E+01   5.167512E+01   7.431751E+01   2.332496E+02   6.772559E+02   4.606211E+02   3.679057E+02   5.713207E+02   7.670601E+02   4.874252E+02   2.113507E+02   3.758250E+02   3.034085E+02   1.431480E+02   8.649172E+01   4.660363E+01   7.652405E+01   3.074400E+01   4.630168E+01   1.458627E+02   8.417833E+01   7.229707E+01   2.710167E+01   3.643493E+01   4.948674E+01   5.555004E+01   2.956930E+02   2.079828E+02   4.949661E+02   5.205176E+02   5.205176E+02   8.119211E+02   1.814966E+02   1.814966E+02   1.384440E+02   6.954060E+01   6.954060E+01   5.646537E+01   5.646537E+01   5.646537E+01   7.329128E+01   7.329128E+01   7.329128E+01   9.271149E+01   9.271149E+01   9.271149E+01   9.271149E+01   9.271149E+01   1.189310E+02   1.189310E+02   1.189310E+02   1.189310E+02   1.189310E+02   1.771735E+02   1.771735E+02   1.771735E+02   1.771735E+02   1.771735E+02   1.771735E+02   1.771735E+02   8.849380E+01   8.849380E+01   8.849380E+01   8.849380E+01   8.849380E+01   8.849380E+01   8.849380E+01   8.849380E+01   8.849380E+01   8.849380E+01   6.837576E+02   6.837576E+02   6.837576E+02   6.837576E+02   6.837576E+02   6.837576E+02   6.837576E+02   6.837576E+02   6.837576E+02   2.576809E+02   2.576809E+02   2.576809E+02   2.576809E+02   2.576809E+02   2.576809E+02   2.576809E+02   1.972385E+02   1.972385E+02   1.972385E+02   1.972385E+02   1.972385E+02   7.596172E+01   7.596172E+01   7.596172E+01   7.596172E+01   2.971292E+01   2.971292E+01   2.971292E+01   2.095124E+01   2.095124E+01   4.979226E+01   4.979226E+01   6.220580E+01   6.220580E+01   5.634752E+01   1.612043E+02   1.866089E+02   1.866089E+02   2.278191E+02   8.837643E+01   1.328993E+02   1.059365E+02   1.147183E+02   7.194343E+01   2.606834E+01   9.676270E+01   9.507852E+01   5.708808E+01   3.785588E+01   1.509807E+02   3.260934E+02   1.745979E+02   1.821582E+02   1.884496E+02   1.415680E+02   1.409627E+02   6.198979E+01   9.273473E+01   4.835130E+01   2.571787E+01   3.206957E+01   1.626117E+01   1.270872E+02   1.044622E+02   1.579733E+02   3.935361E+02   2.578369E+02   1.721280E+02   1.711847E+02   5.403262E+01   2.695589E+01   1.798984E+01   1.424097E+01   7.683087E+01   1.192408E+02   1.176076E+02   1.334277E+02
   1.444874E+02   1.776838E+02   7.829552E+01   8.507676E+01   4.388426E+01   6.530331E+01   3.064385E+02   5.895991E+01   2.903482E+01   2.130424E+01   6.894006E+01   9.832707E+01   1.789060E+02   1.990547E+02   1.685647E+02   2.729419E+02   1.009079E+02   6.438574E+01   2.770127E+01   5.304146E+01   1.363685E+02   2.790436E+02   2.607886E+02   3.372526E+02   1.339290E+03   5.890623E+02   1.980632E+02   3.867101E+02   1.577459E+02   3.546788E+02   8.613049E+01   2.916509E+01   6.450082E+01   1.885663E+02   7.328170E+01   1.841404E+02   5.448661E+01   1.821039E+02   2.528904E+02   9.341559E+01   3.171317E+01   3.748819E+01   8.077727E+01   1.920043E+02   1.824118E+02   8.301285E+01   8.752643E+01   9.706702E+01   2.227223E+02   1.656196E+02   1.148712E+02   1.311107E+02   1.572326E+02   1.078566E+02   3.740054E+01   8.887875E+01   8.496432E+01   6.982933E+01   2.846224E+01   3.168432E+01   2.749412E+01   2.465536E+01   5.531910E+01   2.538466E+02   4.289393E+02   5.670297E+02   7.770804E+02   4.780635E+02   6.932214E+02   1.490630E+02   1.234729E+02   8.781203E+01   8.357763E+01   5.203043E+01   6.237111E+01   8.745820E+00   1.774484E+01   3.776720E+01   6.730158E+01   8.632421E+01   8.305792E+01   6.979506E+01   2.016065E+01   2.343076E+01   4.248478E+01   7.399792E+01   1.331601E+02   3.017263E+02   2.675593E+02   5.304973E+02   5.304973E+02   8.464851E+02   3.237066E+02   3.237066E+02   1.524366E+02   5.479148E+01   5.479148E+01   2.588766E+01   2.588766E+01   2.588766E+01   5.541129E+01   5.541129E+01   5.541129E+01   6.903130E+01   6.903130E+01   6.903130E+01   6.903130E+01   6.903130E+01   1.526974E+02   1.526974E+02   1.526974E+02   1.526974E+02   1.526974E+02   2.000068E+02   2.000068E+02   2.000068E+02   2.000068E+02   2.000068E+02   2.000068E+02   2.000068E+02   8.759653E+01   8.759653E+01   8.759653E+01   8.759653E+01   8.759653E+01   8.759653E+01   8.759653E+01   8.759653E+01   8.759653E+01   8.759653E+01   3.831477E+02   3.831477E+02   3.831477E+02   3.831477E+02   3.831477E+02   3.831477E+02   3.831477E+02   3.831477E+02   3.831477E+02   2.827170E+02   2.827170E+02   2.827170E+02   2.827170E+02   2.827170E+02   2.827170E+02   2.827170E+02   1.680683E+02   1.680683E+02   1.680683E+02   1.680683E+02   1.680683E+02   1.037387E+02   1.037387E+02   1.037387E+02   1.037387E+02   2.553254E+01   2.553254E+01   2.553254E+01   1.662634E+01   1.662634E+01   4.671877E+01   4.671877E+01   6.844720E+01   6.844720E+01   1.362819E+02   2.264899E+02   3.520539E+02   3.520539E+02   1.797557E+02   1.139550E+02   2.663281E+02   1.104419E+02   1.376341E+02   8.840282E+01   2.479583E+01   2.131299E+02   1.171744E+02   9.005929E+01   3.761255E+01   2.996001E+02   3.020083E+02   1.640053E+02   1.800673E+02   1.828601E+02   1.020459E+02   2.813835E+02   1.314495E+02   3.261770E+01   2.951113E+01   2.885188E+01   1.207538E+01   1.191555E+01   6.998252E+01   2.768191E+01   2.048997E+02   2.263146E+02   1.988053E+02   1.557624E+02   1.001747E+02   1.250253E+02   4.492508E+01   3.480878E+01   4.147132E+01   7.970193E+01   8.667343E+01   3.001367E+01   4.990855E+01
   5.219235E+01   5.291077E+01   9.370714E+01   1.048725E+02   4.653483E+01   2.636945E+02   2.876819E+02   5.009341E+01   2.435090E+01   5.436280E+01   6.345422E+01   1.413727E+02   1.779908E+02   4.064531E+02   1.928766E+02   2.042772E+02   1.562615E+02   7.537469E+01   2.133185E+01   6.890941E+01   2.254707E+02   5.210935E+02   4.454067E+02   3.187338E+02   9.030997E+02   2.695122E+02   2.099326E+02   2.106941E+02   7.997459E+01   1.408694E+02   2.254389E+02   6.130958E+01   1.026639E+02   1.166610E+02   5.371325E+01   2.235030E+02   1.136231E+02   8.095865E+01   1.568662E+02   5.971893E+01   5.331394E+01   5.732981E+01   1.842153E+02   2.408373E+02   2.338014E+02   5.140187E+01   4.339743E+01   1.298070E+02   2.635297E+02   2.526348E+02   1.579330E+02   1.888501E+02   1.005642E+02   1.374582E+02   6.028593E+01   6.591299E+01   8.546689E+01   5.115612E+01   2.436501E+01   5.483678E+01   2.748631E+01   2.802637E+01   6.229866E+01   8.547044E+01   2.768307E+02   6.838337E+02   9.601769E+02   5.713350E+02   4.025305E+02   9.842641E+01   1.042683E+02   7.666964E+01   6.057937E+01   4.322466E+01   1.682051E+01   3.226924E+00   5.156238E+00   4.851943E+01   8.680972E+01   5.403711E+01   4.145375E+01   2.644509E+01   5.727139E+01   7.390096E+01   7.118950E+01   7.544311E+01   1.834009E+01   9.029955E+01   1.856024E+02   4.668892E+02   4.668892E+02   4.194450E+02   2.893212E+02   2.893212E+02   1.488293E+02   1.058794E+02   1.058794E+02   1.530061E+01   1.530061E+01   1.530061E+01   6.680215E+01   6.680215E+01   6.680215E+01   3.826804E+01   3.826804E+01   3.826804E+01   3.826804E+01   3.826804E+01   8.299438E+01   8.299438E+01   8.299438E+01   8.299438E+01   8.299438E+01   2.149757E+02   2.149757E+02   2.149757E+02   2.149757E+02   2.149757E+02   2.149757E+02   2.149757E+02   6.373267E+01   6.373267E+01   6.373267E+01   6.373267E+01   6.373267E+01   6.373267E+01   6.373267E+01   6.373267E+01   6.373267E+01   6.373267E+01   1.841902E+02   1.841902E+02   1.841902E+02   1.841902E+02   1.841902E+02   1.841902E+02   1.841902E+02   1.841902E+02   1.841902E+02   3.250804E+02   3.250804E+02   3.250804E+02   3.250804E+02   3.250804E+02   3.250804E+02   3.250804E+02   1.196733E+02   1.196733E+02   1.196733E+02   1.196733E+02   1.196733E+02   7.119288E+01   7.119288E+01   7.119288E+01   7.119288E+01   2.492189E+01   2.492189E+01   2.492189E+01   2.246388E+01   2.246388E+01   3.317178E+01   3.317178E+01   1.163605E+02   1.163605E+02   2.174073E+02   4.915092E+02   2.567603E+02   2.567603E+02   1.702415E+02   8.768511E+01   9.827702E+01   1.892392E+02   2.353594E+02   1.451806E+02   5.199150E+01   1.497560E+02   8.056850E+01   4.656370E+01   5.354016E+01   2.104187E+02   1.197219E+02   1.388967E+02   1.145294E+02   2.002942E+02   1.120144E+02   2.576676E+02   7.478577E+01   3.073339E+01   2.257951E+01   2.846433E+01   1.582680E+01   1.022701E+01   6.868105E+01   2.520022E+01   8.975511E+01   1.897048E+02   2.522876E+02   1.901871E+02   9.031155E+01   7.993349E+01   6.073201E+01   1.251975E+02   3.925888E+01   1.668950E+02   5.580493E+01   3.443917E+01   5.191590E+01
   9.486565E+01   1.307451E+02   1.547110E+02   1.324806E+02   8.535574E+01   2.315669E+02   3.047877E+02   6.028455E+01   8.155347E+01   4.921899E+01   5.517456E+01   1.298364E+02   2.279124E+02   2.784659E+02   1.265118E+02   3.101248E+02   4.846950E+01   4.446387E+01   1.926327E+01   1.053575E+02   1.422037E+02   4.753960E+02   1.017537E+03   5.346962E+02   7.115804E+02   2.861563E+02   1.232298E+02   1.505041E+02   8.593529E+01   8.074570E+01   1.814302E+02   1.373865E+02   9.039264E+01   1.067597E+02   1.035301E+02   7.903503E+01   5.324012E+01   8.936247E+01   5.684077E+01   2.428498E+01   4.299222E+01   4.391268E+01   8.059730E+01   1.611087E+02   8.997205E+01   5.918979E+01   3.285567E+01   5.504599E+01   1.355680E+02   1.574330E+02   1.348261E+02   1.091226E+02   1.050542E+02   1.126830E+02   4.452576E+01   4.289932E+01   1.005838E+02   4.657751E+01   4.811461E+01   2.883833E+01   1.751458E+01   1.635827E+01   4.029902E+01   7.300426E+01   2.967503E+02   5.847344E+02   1.433848E+03   4.237794E+02   1.145491E+02   9.560145E+01   4.442194E+01   2.846098E+01   2.629320E+01   1.374920E+01   1.326547E+01   2.572457E+00   6.709376E+00   2.822295E+01   1.003026E+02   8.379097E+01   7.333099E+01   1.002673E+02   1.580298E+02   1.112668E+02   2.979930E+01   7.455971E+01   3.296448E+01   1.094018E+02   3.922725E+02   3.145173E+02   3.145173E+02   2.055674E+02   1.853827E+02   1.853827E+02   1.103302E+02   4.766259E+01   4.766259E+01   1.305601E+01   1.305601E+01   1.305601E+01   1.033483E+02   1.033483E+02   1.033483E+02   3.540331E+01   3.540331E+01   3.540331E+01   3.540331E+01   3.540331E+01   3.647261E+01   3.647261E+01   3.647261E+01   3.647261E+01   3.647261E+01   8.205304E+01   8.205304E+01   8.205304E+01   8.205304E+01   8.205304E+01   8.205304E+01   8.205304E+01   7.950096E+01   7.950096E+01   7.950096E+01   7.950096E+01   7.950096E+01   7.950096E+01   7.950096E+01   7.950096E+01   7.950096E+01   7.950096E+01   1.269553E+02   1.269553E+02   1.269553E+02   1.269553E+02   1.269553E+02   1.269553E+02   1.269553E+02   1.269553E+02   1.269553E+02   1.179096E+02   1.179096E+02   1.179096E+02   1.179096E+02   1.179096E+02   1.179096E+02   1.179096E+02   9.420063E+01   9.420063E+01   9.420063E+01   9.420063E+01   9.420063E+01   9.415472E+01   9.415472E+01   9.415472E+01   9.415472E+01   2.820113E+01   2.820113E+01   2.820113E+01   4.247840E+01   4.247840E+01   8.815450E+01   8.815450E+01   1.313487E+02   1.313487E+02   1.646322E+02   4.692062E+02   1.791660E+02   1.791660E+02   7.877888E+01   8.551949E+01   1.825394E+02   2.721551E+02   2.398143E+02   2.206184E+02   8.868560E+01   1.267957E+02   9.480012E+01   7.423254E+01   1.936321E+02   1.632042E+02   2.093016E+02   1.343112E+02   8.614375E+01   9.557121E+01   8.651665E+01   1.600302E+02   1.087636E+02   1.097935E+02   3.713987E+01   3.245098E+01   1.591693E+01   2.262359E+01   4.160774E+01   2.185440E+01   8.652767E+01   7.823938E+01   2.872924E+02   1.452778E+02   9.519557E+01   6.653267E+01   9.591602E+01   9.284560E+01   4.953226E+01   6.416020E+01   3.250043E+01   3.252049E+01   2.123162E+01
   1.061447E+02   2.701315E+02   1.386270E+02   7.865579E+01   7.731964E+01   2.042537E+02   8.636954E+01   1.080830E+02   9.704440E+01   9.165786E+01   4.950750E+01   1.519246E+02   6.885326E+01   1.129798E+02   5.862560E+01   2.564202E+02   7.939308E+01   5.118792E+01   6.072258E+01   5.904773E+01   1.356964E+02   5.174326E+02   6.912758E+02   6.940936E+02   4.263163E+02   2.039795E+02   9.947809E+01   8.119151E+01   1.347024E+02   1.329839E+02   8.819560E+01   2.345140E+02   7.760520E+01   8.212768E+01   1.276279E+02   1.238788E+02   6.856422E+01   5.520304E+01   4.562735E+01   2.793816E+01   1.482012E+01   6.208938E+01   6.674611E+01   5.167375E+01   3.723901E+01   2.728518E+01   2.694607E+01   2.045936E+02   1.308895E+02   1.155281E+02   1.495421E+02   1.084238E+02   5.534580E+01   3.069872E+01   8.386876E+01   3.080476E+01   1.135973E+02   5.188181E+01   4.536642E+01   3.932304E+01   1.292295E+01   1.100748E+01   2.770321E+01   7.466125E+01   2.427993E+02   1.769374E+02   4.489479E+02   7.491730E+01   2.484167E+01   6.314909E+01   2.779247E+01   2.889953E+01   1.891339E+01   1.803358E+01   1.135495E+01   9.514398E+00   6.572417E+00   2.155589E+01   5.364446E+01   5.074846E+01   1.294290E+02   1.727567E+02   2.061956E+02   5.929839E+01   4.191846E+01   2.858334E+01   1.072324E+02   6.694290E+01   1.112607E+02   5.603302E+01   5.603302E+01   8.022370E+01   8.429850E+01   8.429850E+01   8.544844E+01   5.147070E+01   5.147070E+01   3.583025E+01   3.583025E+01   3.583025E+01   6.607701E+01   6.607701E+01   6.607701E+01   3.934235E+01   3.934235E+01   3.934235E+01   3.934235E+01   3.934235E+01   5.607735E+01   5.607735E+01   5.607735E+01   5.607735E+01   5.607735E+01   8.324088E+01   8.324088E+01   8.324088E+01   8.324088E+01   8.324088E+01   8.324088E+01   8.324088E+01   7.103109E+01   7.103109E+01   7.103109E+01   7.103109E+01   7.103109E+01   7.103109E+01   7.103109E+01   7.103109E+01   7.103109E+01   7.103109E+01   2.683544E+02   2.683544E+02   2.683544E+02   2.683544E+02   2.683544E+02   2.683544E+02   2.683544E+02   2.683544E+02   2.683544E+02   1.094364E+02   1.094364E+02   1.094364E+02   1.094364E+02   1.094364E+02   1.094364E+02   1.094364E+02   9.418883E+01   9.418883E+01   9.418883E+01   9.418883E+01   9.418883E+01   9.201625E+01   9.201625E+01   9.201625E+01   9.201625E+01   4.079622E+01   4.079622E+01   4.079622E+01   2.209278E+01   2.209278E+01   6.308607E+01   6.308607E+01   1.219945E+02   1.219945E+02   1.397258E+02   3.257449E+02   3.608057E+02   3.608057E+02   5.714281E+01   6.071256E+01   2.002355E+02   2.617274E+02   2.932691E+02   1.251326E+02   1.550051E+02   2.597301E+02   6.454414E+01   2.696209E+02   2.400308E+02   1.860883E+02   2.057814E+02   1.076908E+02   1.263786E+02   1.007467E+02   1.171939E+02   1.075047E+02   9.445039E+01   9.015201E+01   1.202246E+02   4.174446E+01   1.816954E+01   1.815160E+01   2.974507E+01   3.292145E+01   8.459924E+01   6.271627E+01   3.500770E+02   6.316986E+01   9.708804E+01   3.586143E+01   6.092643E+01   6.490292E+01   3.274067E+01   7.362598E+01   5.357578E+01   3.390029E+01   1.539104E+01