# LPF package for  MODFLOW-2005, generated by Flopy.
        53    -1E+30         0  
         1
         0
   0.000000E+00
         0
         0
INTERNAL               1 (207E15.6) -1 #hk layer 1                    
   5.883569E+02   1.098922E+03   8.635911E+02   2.198839E+02   6.541677E+01   5.568154E+01   3.204773E+01   3.525334E+01   1.561144E+01   4.745919E+01   6.056221E+01   4.130383E+01   1.734785E+02   1.509921E+02   1.381822E+02   1.682350E+02   1.238472E+02   1.197842E+02   3.023035E+02   1.382859E+02   6.552395E+01   1.523177E+02   1.792485E+02   3.404598E+02   2.620174E+02   1.471027E+02   2.405842E+02   1.390182E+02   1.694663E+02   1.318445E+02   9.493886E+01   6.181758E+01   6.651963E+01   6.064214E+01   8.826505E+01   1.384433E+02   1.266078E+02   1.749832E+02   5.390570E+01   6.213110E+01   8.971896E+01   1.479266E+02   6.172964E+01   7.364310E+01   6.169063E+01   4.383609E+01   2.931529E+01   3.189634E+01   5.066709E+01   1.283482E+02   4.555222E+01   1.561256E+02   4.276297E+02   5.039453E+02   1.259611E+02   2.378293E+01   6.103403E+01   8.183282E+01   9.155327E+01   1.030870E+02   9.602193E+01   1.178203E+02   1.162604E+02   4.809191E+01   6.345605E+01   2.713707E+01   8.086160E+01   1.488385E+02   1.386563E+02   1.182491E+02   2.938091E+01   3.514873E+01   2.906277E+01   1.339095E+02   7.460784E+01   5.959563E+01   2.240964E+01   1.159612E+01   1.544988E+01   1.352489E+01   3.686515E+01   8.287287E+01   5.559115E+01   2.053757E+01   2.130978E+01   1.201033E+02   3.317577E+02   1.758634E+02   1.251748E+02   1.893770E+02   1.893770E+02   2.418128E+02   2.763118E+02   2.763118E+02   2.925092E+02   9.306911E+01   9.306911E+01   6.120655E+01   6.120655E+01   6.120655E+01   1.120870E+02   1.120870E+02   1.120870E+02   1.459714E+02   1.459714E+02   1.459714E+02   1.459714E+02   1.459714E+02   1.281183E+02   1.281183E+02   1.281183E+02   1.281183E+02   1.281183E+02   7.847016E+01   7.847016E+01   7.847016E+01   7.847016E+01   7.847016E+01   7.847016E+01   7.847016E+01   1.594042E+02   1.594042E+02   1.594042E+02   1.594042E+02   1.594042E+02   1.594042E+02   1.594042E+02   1.594042E+02   1.594042E+02   1.594042E+02   5.088591E+01   5.088591E+01   5.088591E+01   5.088591E+01   5.088591E+01   5.088591E+01   5.088591E+01   5.088591E+01   5.088591E+01   9.442685E+01   9.442685E+01   9.442685E+01   9.442685E+01   9.442685E+01   9.442685E+01   9.442685E+01   8.231258E+01   8.231258E+01   8.231258E+01   8.231258E+01   8.231258E+01   1.091034E+02   1.091034E+02   1.091034E+02   1.091034E+02   2.270935E+02   2.270935E+02   2.270935E+02   4.299764E+02   4.299764E+02   6.736949E+01   6.736949E+01   1.240366E+01   1.240366E+01   2.311557E+01   1.925025E+01   7.076801E+01   7.076801E+01   6.948840E+01   5.069812E+01   7.432960E+01   5.349773E+01   2.579482E+01   3.085085E+01   3.594542E+01   1.029768E+02   8.772317E+01   5.904221E+01   2.057293E+02   1.396853E+02   8.212775E+01   9.173993E+01   5.319692E+01   2.684969E+01   2.228472E+01   2.694222E+01   2.472082E+01   6.514117E+01   1.458058E+02   2.223972E+02   3.363573E+02   2.943997E+02   2.172513E+02   2.871371E+02   1.766806E+02   4.864356E+01   8.897743E+01   1.204401E+02   1.558654E+02   2.499610E+02   1.392332E+02   5.966679E+01   1.783592E+02   2.077066E+02   3.492984E+01   2.798310E+01   2.342666E+01
   2.283789E+02   1.115914E+03   3.522505E+02   1.324942E+02   5.454272E+01   2.658408E+01   2.194179E+01   2.183955E+01   3.275284E+01   5.245770E+01   1.099420E+02   8.072865E+01   1.712325E+02   2.254348E+02   1.347654E+02   1.530953E+02   2.167346E+02   1.699766E+02   2.738522E+02   1.507021E+02   8.639221E+01   1.566385E+02   1.953230E+02   2.780787E+02   1.284727E+02   1.296992E+02   8.941410E+01   1.079339E+02   1.802396E+02   2.255551E+02   1.125185E+02   2.362222E+01   5.276998E+01   5.846994E+01   1.317040E+02   2.997872E+02   1.659288E+02   1.030990E+02   8.541470E+01   6.308330E+01   3.843198E+01   1.005960E+02   5.200439E+01   1.169736E+02   1.813133E+01   1.948369E+01   3.994799E+01   1.274943E+02   9.570887E+01   1.656521E+02   9.422632E+01   2.649654E+02   1.507333E+02   2.415188E+02   1.549315E+02   3.592406E+01   3.223129E+01   4.235813E+01   1.016142E+02   1.803476E+02   6.261348E+01   1.634109E+02   8.418812E+01   4.214045E+01   3.660773E+01   2.070294E+01   7.252085E+01   4.817082E+01   6.400723E+01   3.701868E+01   8.682388E+00   1.642687E+01   4.335450E+01   9.113642E+01   9.578286E+01   6.373409E+01   1.657363E+01   1.344691E+01   1.418375E+01   3.471093E+01   5.360961E+01   1.037047E+02   7.806141E+01   2.773888E+01   4.253765E+01   9.023293E+01   1.448016E+02   1.262960E+02   1.614929E+02   8.937864E+01   8.937864E+01   1.440452E+02   1.294883E+02   1.294883E+02   1.596047E+02   6.797159E+01   6.797159E+01   3.512436E+01   3.512436E+01   3.512436E+01   1.375231E+02   1.375231E+02   1.375231E+02   7.328524E+01   7.328524E+01   7.328524E+01   7.328524E+01   7.328524E+01   1.040175E+02   1.040175E+02   1.040175E+02   1.040175E+02   1.040175E+02   9.099294E+01   9.099294E+01   9.099294E+01   9.099294E+01   9.099294E+01   9.099294E+01   9.099294E+01   2.337910E+02   2.337910E+02   2.337910E+02   2.337910E+02   2.337910E+02   2.337910E+02   2.337910E+02   2.337910E+02   2.337910E+02   2.337910E+02   2.493738E+02   2.493738E+02   2.493738E+02   2.493738E+02   2.493738E+02   2.493738E+02   2.493738E+02   2.493738E+02   2.493738E+02   7.706265E+01   7.706265E+01   7.706265E+01   7.706265E+01   7.706265E+01   7.706265E+01   7.706265E+01   4.071894E+01   4.071894E+01   4.071894E+01   4.071894E+01   4.071894E+01   8.024654E+01   8.024654E+01   8.024654E+01   8.024654E+01   2.707320E+02   2.707320E+02   2.707320E+02   3.874818E+02   3.874818E+02   1.052677E+02   1.052677E+02   2.047990E+01   2.047990E+01   4.460066E+01   1.017276E+01   9.514056E+01   9.514056E+01   1.013023E+02   5.333841E+01   6.685059E+01   5.171705E+01   2.403601E+01   2.302080E+01   3.423318E+01   8.432943E+01   4.159118E+01   5.027666E+01   9.940638E+01   6.974790E+01   6.647879E+01   5.559323E+01   3.461178E+01   2.913411E+01   2.088836E+01   1.501258E+01   1.719202E+01   4.689520E+01   1.529626E+02   2.767772E+02   1.893589E+02   1.882612E+02   2.316411E+02   2.685242E+02   8.088027E+01   7.408287E+01   1.647113E+02   1.541863E+02   4.221332E+02   2.122293E+02   2.258177E+02   1.199866E+02   5.001163E+01   4.580694E+01   1.431087E+01   3.629256E+01   3.126268E+01
   1.035688E+02   6.760184E+02   4.813029E+02   1.519165E+02   6.163592E+01   1.357966E+01   2.845659E+01   2.584709E+01   2.368398E+01   2.908532E+01   1.002105E+02   7.595570E+01   8.558516E+01   9.464194E+01   1.318893E+02   1.300325E+02   2.946900E+02   2.148838E+02   2.877421E+02   3.336733E+02   1.732411E+02   2.295068E+02   2.667407E+02   1.769964E+02   1.606431E+02   1.731468E+02   1.152943E+02   6.659380E+01   3.077726E+02   2.131607E+02   1.062157E+02   4.601419E+01   4.807891E+01   3.900101E+01   8.121509E+01   1.264999E+02   5.237722E+01   5.335224E+01   1.816811E+02   9.707529E+01   4.750801E+01   3.674450E+01   3.452779E+01   8.656434E+01   6.426424E+01   2.321110E+01   9.084338E+01   1.053237E+02   1.130677E+02   1.222417E+02   8.067477E+01   9.989851E+01   8.825313E+01   6.241563E+01   1.205056E+02   8.639631E+01   2.384740E+01   5.377686E+01   1.785688E+02   1.656803E+02   7.689395E+01   6.846167E+01   1.995355E+02   4.509419E+01   4.010119E+01   1.655651E+01   5.949036E+01   2.824535E+01   6.439136E+01   2.682445E+01   1.244380E+01   1.394154E+01   6.725252E+01   4.902324E+01   8.605826E+01   5.052910E+01   1.671397E+01   1.090119E+01   1.553146E+01   5.853022E+01   3.047307E+01   7.228979E+01   6.627171E+01   5.247903E+01   6.173940E+01   7.136389E+01   1.850306E+02   2.122070E+02   2.128859E+02   9.142555E+01   9.142555E+01   9.556491E+01   4.226060E+01   4.226060E+01   9.667306E+01   3.790184E+01   3.790184E+01   2.793501E+01   2.793501E+01   2.793501E+01   6.430158E+01   6.430158E+01   6.430158E+01   3.438396E+01   3.438396E+01   3.438396E+01   3.438396E+01   3.438396E+01   1.000618E+02   1.000618E+02   1.000618E+02   1.000618E+02   1.000618E+02   1.724866E+02   1.724866E+02   1.724866E+02   1.724866E+02   1.724866E+02   1.724866E+02   1.724866E+02   2.618148E+02   2.618148E+02   2.618148E+02   2.618148E+02   2.618148E+02   2.618148E+02   2.618148E+02   2.618148E+02   2.618148E+02   2.618148E+02   3.378052E+02   3.378052E+02   3.378052E+02   3.378052E+02   3.378052E+02   3.378052E+02   3.378052E+02   3.378052E+02   3.378052E+02   8.589089E+01   8.589089E+01   8.589089E+01   8.589089E+01   8.589089E+01   8.589089E+01   8.589089E+01   4.879644E+01   4.879644E+01   4.879644E+01   4.879644E+01   4.879644E+01   7.978883E+01   7.978883E+01   7.978883E+01   7.978883E+01   3.969842E+02   3.969842E+02   3.969842E+02   5.425978E+02   5.425978E+02   1.642817E+02   1.642817E+02   9.820870E+00   9.820870E+00   1.692110E+01   2.112544E+01   4.253910E+01   4.253910E+01   9.474203E+01   3.475908E+01   7.836932E+01   5.693509E+01   1.908351E+01   2.005765E+01   3.561666E+01   6.028754E+01   2.476809E+01   1.036632E+02   6.881041E+01   8.171738E+01   5.446443E+01   4.004403E+01   5.034217E+01   3.823567E+01   2.845441E+01   2.409123E+01   3.144598E+01   6.887680E+01   8.141811E+01   1.135677E+02   1.602469E+02   2.082613E+02   1.340689E+02   1.829889E+02   1.397392E+02   2.293022E+02   3.695880E+02   1.143494E+02   3.461659E+02   1.793829E+02   2.572888E+02   1.693629E+02   7.318620E+01   3.988546E+01   2.458519E+01   5.991705E+01   5.679140E+01
   2.050450E+02   4.701797E+02   4.578114E+02   1.493582E+02   5.859076E+01   2.793036E+01   6.267412E+01   2.238581E+01   2.043106E+01   2.677630E+01   7.051460E+01   7.416636E+01   7.586523E+01   7.174825E+01   1.169279E+02   1.370416E+02   3.152708E+02   2.964093E+02   2.196005E+02   2.460325E+02   2.328901E+02   1.598871E+02   1.627127E+02   1.718575E+02   2.656606E+02   2.248509E+02   1.549715E+02   9.250813E+01   4.097168E+02   2.095288E+02   1.406076E+02   6.886205E+01   3.789729E+01   3.887760E+01   7.569469E+01   3.824214E+01   6.978258E+01   6.015614E+01   6.628951E+01   4.490282E+01   3.560070E+01   3.118973E+01   2.710970E+01   4.087863E+01   5.102417E+01   4.987422E+01   1.315394E+02   7.867862E+01   1.515183E+02   8.612727E+01   1.176388E+02   1.807917E+02   1.576262E+02   8.417054E+01   3.799415E+02   7.466335E+01   5.643244E+01   7.308827E+01   1.109633E+02   1.041760E+02   6.130457E+01   3.953586E+01   1.502902E+02   1.058993E+02   4.911232E+01   2.718835E+01   6.277778E+01   5.169052E+01   4.645797E+01   2.462898E+01   3.722667E+01   4.009660E+01   7.493399E+01   9.211531E+01   7.806353E+01   6.110704E+01   3.095111E+01   3.830119E+01   4.358300E+01   4.993712E+01   3.117916E+01   5.487315E+01   5.130251E+01   7.269575E+01   1.229050E+02   1.098636E+02   2.216618E+02   2.526040E+02   1.295501E+02   5.747974E+01   5.747974E+01   4.127993E+01   5.169867E+01   5.169867E+01   8.457613E+01   4.065598E+01   4.065598E+01   3.322591E+01   3.322591E+01   3.322591E+01   3.733574E+01   3.733574E+01   3.733574E+01   5.934192E+01   5.934192E+01   5.934192E+01   5.934192E+01   5.934192E+01   1.407350E+02   1.407350E+02   1.407350E+02   1.407350E+02   1.407350E+02   1.929202E+02   1.929202E+02   1.929202E+02   1.929202E+02   1.929202E+02   1.929202E+02   1.929202E+02   2.213408E+02   2.213408E+02   2.213408E+02   2.213408E+02   2.213408E+02   2.213408E+02   2.213408E+02   2.213408E+02   2.213408E+02   2.213408E+02   9.599346E+01   9.599346E+01   9.599346E+01   9.599346E+01   9.599346E+01   9.599346E+01   9.599346E+01   9.599346E+01   9.599346E+01   1.001114E+02   1.001114E+02   1.001114E+02   1.001114E+02   1.001114E+02   1.001114E+02   1.001114E+02   3.402808E+01   3.402808E+01   3.402808E+01   3.402808E+01   3.402808E+01   8.000181E+01   8.000181E+01   8.000181E+01   8.000181E+01   1.687228E+02   1.687228E+02   1.687228E+02   1.358649E+02   1.358649E+02   1.060139E+02   1.060139E+02   3.843515E+01   3.843515E+01   7.710667E+00   6.558535E+00   2.121049E+01   2.121049E+01   3.229356E+01   3.460694E+01   8.852726E+01   4.274644E+01   3.192239E+01   9.202984E+00   1.850723E+01   3.451424E+01   5.001724E+01   1.089445E+02   6.875204E+01   1.529753E+02   3.782196E+01   2.999283E+01   3.959449E+01   3.123470E+01   1.282788E+01   1.934932E+01   5.138266E+01   4.845974E+01   5.948432E+01   9.061764E+01   2.200442E+02   2.058105E+02   1.877634E+02   1.779038E+02   1.980266E+02   6.054936E+01   2.972257E+02   1.238558E+02   1.558040E+02   1.166709E+02   2.673673E+02   1.027413E+02   1.156450E+02   3.698549E+01   3.913954E+01   9.385289E+01   5.106892E+01
   2.375715E+02   1.960726E+02   4.688127E+02   7.899830E+01   5.241595E+01   6.295195E+01   3.451553E+01   2.881101E+01   3.614449E+01   3.748367E+01   4.153461E+01   3.598096E+01   6.552203E+01   7.837708E+01   1.183908E+02   2.372363E+02   2.983680E+02   5.292756E+02   5.751871E+02   9.680875E+01   3.005111E+02   1.133456E+02   8.281047E+01   1.193924E+02   1.404302E+02   2.118948E+02   1.112150E+02   7.893624E+01   2.687378E+02   2.292705E+02   1.453288E+02   1.250945E+02   6.729514E+01   4.814527E+01   6.928467E+01   9.671185E+01   8.602898E+01   6.745361E+01   3.078486E+01   6.127177E+01   7.427834E+01   5.332994E+01   2.934626E+01   3.230254E+01   6.885934E+01   3.520407E+01   7.525204E+01   6.191892E+01   1.077939E+02   1.189305E+02   1.189690E+02   1.409013E+02   1.539776E+02   1.666038E+02   1.672081E+02   5.285521E+01   7.110690E+01   1.687431E+02   1.003928E+02   5.753263E+01   8.056357E+01   1.136683E+02   1.145137E+02   1.268873E+02   3.174594E+01   4.090402E+01   1.015214E+02   5.776928E+01   3.679466E+01   8.821227E+00   1.020993E+01   5.818064E+01   8.706964E+01   7.979893E+01   1.176616E+02   1.318845E+02   4.530115E+01   1.667050E+02   7.988563E+01   4.498912E+01   6.337129E+01   6.962267E+01   5.792835E+01   1.303816E+02   1.303987E+02   1.871961E+02   2.346806E+02   1.548851E+02   1.088213E+02   3.218122E+01   3.218122E+01   3.963934E+01   3.637579E+01   3.637579E+01   7.868803E+01   8.274699E+01   8.274699E+01   2.637451E+01   2.637451E+01   2.637451E+01   1.362395E+01   1.362395E+01   1.362395E+01   6.948309E+01   6.948309E+01   6.948309E+01   6.948309E+01   6.948309E+01   1.616762E+02   1.616762E+02   1.616762E+02   1.616762E+02   1.616762E+02   1.605726E+02   1.605726E+02   1.605726E+02   1.605726E+02   1.605726E+02   1.605726E+02   1.605726E+02   2.138662E+02   2.138662E+02   2.138662E+02   2.138662E+02   2.138662E+02   2.138662E+02   2.138662E+02   2.138662E+02   2.138662E+02   2.138662E+02   1.319201E+02   1.319201E+02   1.319201E+02   1.319201E+02   1.319201E+02   1.319201E+02   1.319201E+02   1.319201E+02   1.319201E+02   8.182430E+01   8.182430E+01   8.182430E+01   8.182430E+01   8.182430E+01   8.182430E+01   8.182430E+01   1.923814E+01   1.923814E+01   1.923814E+01   1.923814E+01   1.923814E+01   3.500864E+01   3.500864E+01   3.500864E+01   3.500864E+01   7.543190E+01   7.543190E+01   7.543190E+01   2.468437E+02   2.468437E+02   7.019606E+01   7.019606E+01   5.131892E+01   5.131892E+01   2.001299E+01   2.538720E+01   3.066728E+01   3.066728E+01   2.781024E+01   2.976399E+01   1.039339E+02   3.282440E+01   3.496066E+01   2.096906E+01   3.104503E+01   3.011288E+01   5.451045E+01   7.221712E+01   6.673006E+01   1.191656E+02   4.203373E+01   8.325024E+01   2.612507E+01   2.483693E+01   1.615187E+01   5.598384E+01   7.525612E+01   7.400221E+01   3.366575E+01   1.566236E+02   2.521287E+02   1.529364E+02   9.120898E+01   9.156227E+01   1.545969E+02   1.116794E+02   1.621168E+02   2.028365E+02   9.021583E+01   1.920151E+02   2.522558E+02   1.359121E+02   1.244064E+02   1.382856E+02   5.739684E+01   1.266233E+02   1.321200E+02
   1.894809E+02   1.475000E+02   2.000050E+02   2.136271E+02   1.124973E+02   8.875474E+01   5.434324E+01   2.995586E+01   2.699363E+01   4.919685E+01   2.532462E+01   4.792616E+01   3.710781E+01   9.364976E+01   7.669889E+01   3.084438E+02   4.329707E+02   4.408050E+02   3.002570E+02   9.967188E+01   1.763052E+02   1.803179E+02   9.170767E+01   1.751322E+02   3.463720E+02   1.728361E+02   1.195150E+02   1.209270E+02   3.422970E+02   1.836579E+02   3.268751E+02   1.547169E+02   9.641288E+01   5.240178E+01   5.825294E+01   8.277602E+01   6.142261E+01   8.714657E+01   4.352762E+01   5.618144E+01   8.308927E+01   3.011355E+01   4.699855E+01   2.865994E+01   6.696458E+01   3.009757E+01   1.187136E+02   1.495375E+02   1.620897E+02   9.300665E+01   4.512856E+01   1.058697E+02   1.235617E+02   7.053115E+01   8.452813E+01   4.050829E+01   8.916180E+01   1.218879E+02   5.684740E+01   5.793899E+01   4.976141E+01   4.634212E+01   4.407194E+01   1.108921E+02   4.914194E+01   2.637542E+01   3.553889E+01   4.110786E+01   5.970698E+01   3.060517E+01   3.036314E+01   3.899066E+01   9.722280E+01   1.019885E+02   1.333004E+02   1.663978E+02   7.729792E+01   1.964997E+02   5.589515E+01   3.130824E+01   4.906504E+01   9.618527E+01   1.465872E+02   3.121605E+02   8.924921E+01   3.735483E+02   4.688775E+02   4.318082E+02   3.221260E+01   1.835618E+01   1.835618E+01   3.240508E+01   5.008107E+01   5.008107E+01   8.787534E+01   1.271348E+02   1.271348E+02   1.961453E+01   1.961453E+01   1.961453E+01   1.011043E+01   1.011043E+01   1.011043E+01   6.535258E+01   6.535258E+01   6.535258E+01   6.535258E+01   6.535258E+01   9.032400E+01   9.032400E+01   9.032400E+01   9.032400E+01   9.032400E+01   1.351788E+02   1.351788E+02   1.351788E+02   1.351788E+02   1.351788E+02   1.351788E+02   1.351788E+02   2.938540E+02   2.938540E+02   2.938540E+02   2.938540E+02   2.938540E+02   2.938540E+02   2.938540E+02   2.938540E+02   2.938540E+02   2.938540E+02   1.256737E+02   1.256737E+02   1.256737E+02   1.256737E+02   1.256737E+02   1.256737E+02   1.256737E+02   1.256737E+02   1.256737E+02   4.568313E+01   4.568313E+01   4.568313E+01   4.568313E+01   4.568313E+01   4.568313E+01   4.568313E+01   2.101755E+01   2.101755E+01   2.101755E+01   2.101755E+01   2.101755E+01   1.945020E+01   1.945020E+01   1.945020E+01   1.945020E+01   7.141749E+01   7.141749E+01   7.141749E+01   3.846710E+02   3.846710E+02   1.765146E+02   1.765146E+02   5.762252E+01   5.762252E+01   5.417707E+01   8.020217E+01   4.045830E+01   4.045830E+01   3.610493E+01   2.544464E+01   4.154435E+01   3.344357E+01   2.309465E+01   2.200578E+01   2.375476E+01   3.577755E+01   4.558832E+01   6.470680E+01   1.004378E+02   7.359023E+01   1.155521E+02   7.216507E+01   3.025034E+01   1.266503E+01   3.179741E+01   9.623314E+01   9.904250E+01   4.690407E+01   6.124409E+01   5.673061E+01   1.258224E+02   9.188694E+01   6.785460E+01   1.275701E+02   1.892303E+02   1.135152E+02   2.120482E+02   1.002373E+02   5.814645E+01   6.010177E+01   1.971557E+02   2.168274E+02   9.973917E+01   1.462383E+02   4.411079E+01   1.094011E+02   1.268370E+02
   6.574381E+01   2.924923E+02   2.257784E+02   8.167642E+01   1.055811E+02   7.472240E+01   9.943445E+01   3.111675E+01   3.871704E+01   2.247357E+01   3.855936E+01   7.099986E+01   3.503447E+01   4.884832E+01   6.075766E+01   2.216001E+02   3.433028E+02   2.227930E+02   1.614882E+02   1.449341E+02   9.436510E+01   1.112459E+02   1.096361E+02   1.732910E+02   4.006200E+02   2.565507E+02   6.080890E+01   2.180667E+02   3.872265E+02   1.187394E+02   8.302488E+01   1.005775E+02   5.891642E+01   1.504799E+02   9.922368E+01   6.722913E+01   7.322915E+01   8.124716E+01   4.579328E+01   1.606629E+02   2.021486E+02   1.142175E+02   5.239862E+01   1.881003E+01   7.047289E+01   5.325142E+01   1.344012E+02   3.366703E+02   1.515984E+02   9.153461E+01   3.619867E+01   8.122365E+01   1.435550E+02   1.916508E+02   1.164074E+02   5.861740E+01   9.483986E+01   7.545478E+01   5.696611E+01   5.281898E+01   3.426537E+01   4.275792E+01   3.643034E+01   7.986502E+01   3.886624E+01   2.689663E+01   2.298356E+01   3.664916E+01   4.691994E+01   7.620116E+01   8.950644E+01   4.121271E+01   8.823602E+01   8.971928E+01   1.765448E+02   1.654827E+02   1.608372E+02   2.833359E+02   8.400996E+01   4.438052E+01   6.173271E+01   7.821599E+01   1.182437E+02   2.648570E+02   1.849237E+02   5.285652E+02   6.094157E+02   3.695952E+02   3.646058E+01   1.560555E+01   1.560555E+01   1.550717E+01   3.490689E+01   3.490689E+01   6.879602E+01   5.211827E+01   5.211827E+01   2.644395E+01   2.644395E+01   2.644395E+01   7.480292E+00   7.480292E+00   7.480292E+00   6.780231E+01   6.780231E+01   6.780231E+01   6.780231E+01   6.780231E+01   8.855245E+01   8.855245E+01   8.855245E+01   8.855245E+01   8.855245E+01   7.418263E+01   7.418263E+01   7.418263E+01   7.418263E+01   7.418263E+01   7.418263E+01   7.418263E+01   1.831601E+02   1.831601E+02   1.831601E+02   1.831601E+02   1.831601E+02   1.831601E+02   1.831601E+02   1.831601E+02   1.831601E+02   1.831601E+02   1.839222E+02   1.839222E+02   1.839222E+02   1.839222E+02   1.839222E+02   1.839222E+02   1.839222E+02   1.839222E+02   1.839222E+02   3.849814E+01   3.849814E+01   3.849814E+01   3.849814E+01   3.849814E+01   3.849814E+01   3.849814E+01   3.058837E+01   3.058837E+01   3.058837E+01   3.058837E+01   3.058837E+01   8.685313E+01   8.685313E+01   8.685313E+01   8.685313E+01   1.108954E+02   1.108954E+02   1.108954E+02   1.571423E+02   1.571423E+02   1.522493E+02   1.522493E+02   9.323105E+01   9.323105E+01   1.571555E+02   8.870314E+01   1.011125E+02   1.011125E+02   6.083520E+01   5.940797E+01   4.996923E+01   4.608305E+01   4.807066E+01   2.496344E+01   4.320687E+01   7.055410E+01   5.690006E+01   4.762563E+01   1.279942E+02   4.578806E+01   1.031665E+02   6.054164E+01   2.181579E+01   9.963727E+00   1.832463E+01   1.241941E+02   6.784103E+01   1.033876E+02   9.984195E+01   9.568217E+01   1.690874E+02   1.330624E+02   4.516504E+01   1.274499E+02   2.188132E+02   4.987570E+02   2.973414E+02   5.634014E+01   6.090808E+01   4.798327E+01   1.202219E+02   1.413551E+02   1.838935E+02   8.108955E+01   2.943768E+01   6.627352E+01   1.593345E+02
   2.413558E+01   1.524234E+02   3.510168E+02   1.076488E+02   5.667379E+01   5.890022E+01   4.658286E+01   1.962190E+01   4.272525E+01   4.743314E+01   8.289433E+01   2.678061E+01   3.705996E+01   5.223075E+01   9.906659E+01   4.558726E+02   1.195504E+02   8.554327E+01   9.199329E+01   1.766464E+02   1.126237E+02   7.190288E+01   1.886926E+02   1.458994E+02   1.203714E+02   3.620662E+02   3.622855E+01   8.381918E+01   3.017734E+02   2.008748E+02   5.058817E+01   8.510307E+01   6.325124E+01   1.185496E+02   2.040409E+02   7.222477E+01   3.821767E+01   2.825645E+01   4.827960E+01   1.703018E+02   2.180038E+02   5.278262E+01   5.365493E+01   3.455136E+01   3.623510E+01   4.970779E+01   7.303563E+01   2.164951E+02   1.128127E+02   7.035844E+01   4.275360E+01   8.170100E+01   1.138827E+02   1.694343E+02   5.759343E+01   1.304951E+02   1.041676E+02   7.981914E+01   4.867789E+01   4.781424E+01   2.412467E+01   2.646614E+01   1.111587E+02   9.895723E+01   4.509973E+01   5.019855E+01   2.175376E+01   5.348313E+01   1.185121E+02   1.783321E+02   1.149615E+02   5.948810E+01   1.050961E+02   6.918196E+01   9.451947E+01   9.442586E+01   1.593846E+02   2.264394E+02   5.312622E+01   3.521854E+01   4.669518E+01   5.000488E+01   4.719855E+01   9.756068E+01   1.581408E+02   4.770157E+02   4.730729E+02   1.517686E+02   8.583047E+01   2.443319E+01   2.443319E+01   1.069444E+01   5.134231E+01   5.134231E+01   4.666227E+01   8.054511E+01   8.054511E+01   4.567118E+01   4.567118E+01   4.567118E+01   3.764879E+01   3.764879E+01   3.764879E+01   1.052432E+02   1.052432E+02   1.052432E+02   1.052432E+02   1.052432E+02   8.755088E+01   8.755088E+01   8.755088E+01   8.755088E+01   8.755088E+01   5.487143E+01   5.487143E+01   5.487143E+01   5.487143E+01   5.487143E+01   5.487143E+01   5.487143E+01   1.538713E+02   1.538713E+02   1.538713E+02   1.538713E+02   1.538713E+02   1.538713E+02   1.538713E+02   1.538713E+02   1.538713E+02   1.538713E+02   1.034162E+02   1.034162E+02   1.034162E+02   1.034162E+02   1.034162E+02   1.034162E+02   1.034162E+02   1.034162E+02   1.034162E+02   3.108349E+01   3.108349E+01   3.108349E+01   3.108349E+01   3.108349E+01   3.108349E+01   3.108349E+01   6.472579E+01   6.472579E+01   6.472579E+01   6.472579E+01   6.472579E+01   8.441605E+01   8.441605E+01   8.441605E+01   8.441605E+01   1.586280E+02   1.586280E+02   1.586280E+02   1.931610E+02   1.931610E+02   6.050140E+02   6.050140E+02   1.481401E+02   1.481401E+02   4.473357E+02   1.507666E+02   1.536124E+02   1.536124E+02   1.140996E+02   7.478853E+01   4.502751E+01   3.661438E+01   3.407416E+01   2.666840E+01   4.235402E+01   5.325431E+01   3.933311E+01   6.190013E+01   9.407326E+01   6.469753E+01   1.018780E+02   8.693851E+01   4.871831E+01   2.716426E+01   2.964310E+01   7.214761E+01   3.998848E+01   7.653967E+01   8.151052E+01   4.458403E+01   1.308074E+02   7.056580E+01   4.864796E+01   1.357069E+02   2.633589E+02   5.410676E+02   1.135803E+02   2.473561E+01   4.103132E+01   5.872780E+01   6.296338E+01   1.078404E+02   2.012292E+02   1.178502E+02   3.973193E+01   4.208950E+01   1.407982E+02
   2.887571E+01   8.808275E+01   1.401811E+02   2.111864E+02   5.039650E+01   3.169979E+01   2.136406E+01   4.221591E+01   7.910553E+01   5.060540E+01   6.935063E+01   4.906907E+01   3.181097E+01   3.639141E+01   2.126789E+02   1.751433E+02   2.441642E+02   1.026636E+02   9.175306E+01   6.256951E+01   8.694568E+01   4.386007E+01   1.092853E+02   1.531634E+02   4.811179E+02   2.290344E+02   1.248398E+02   7.234031E+01   7.135005E+02   1.686579E+02   4.580779E+01   8.286240E+01   2.282960E+02   6.209772E+01   2.258573E+02   7.272383E+01   5.223518E+01   8.176511E+01   1.706092E+02   1.498822E+02   1.051423E+02   7.853780E+01   3.235496E+01   4.156812E+01   2.095951E+01   1.131367E+02   2.396737E+02   2.600205E+02   1.582597E+02   8.460968E+01   5.677206E+01   8.850553E+01   1.392872E+02   1.743811E+02   7.333959E+01   1.897706E+02   3.459026E+02   5.522602E+01   4.196427E+01   5.267913E+01   3.717343E+01   8.270332E+01   1.570124E+02   2.051224E+02   3.814067E+01   3.317102E+01   2.522801E+01   2.239784E+01   6.096571E+01   1.260095E+02   1.218365E+02   3.987489E+01   4.487220E+01   1.353188E+02   1.573776E+02   5.869831E+01   2.093052E+02   8.139093E+01   4.189798E+01   4.718427E+01   4.474856E+01   6.792511E+01   3.365310E+01   9.270393E+01   1.830515E+02   2.913481E+02   2.314255E+02   1.145660E+02   7.890660E+01   1.944739E+01   1.944739E+01   1.180996E+01   3.865084E+01   3.865084E+01   9.317451E+01   6.537600E+01   6.537600E+01   7.371108E+01   7.371108E+01   7.371108E+01   4.870480E+01   4.870480E+01   4.870480E+01   6.142173E+01   6.142173E+01   6.142173E+01   6.142173E+01   6.142173E+01   7.217374E+01   7.217374E+01   7.217374E+01   7.217374E+01   7.217374E+01   5.823240E+01   5.823240E+01   5.823240E+01   5.823240E+01   5.823240E+01   5.823240E+01   5.823240E+01   2.419266E+02   2.419266E+02   2.419266E+02   2.419266E+02   2.419266E+02   2.419266E+02   2.419266E+02   2.419266E+02   2.419266E+02   2.419266E+02   1.623803E+02   1.623803E+02   1.623803E+02   1.623803E+02   1.623803E+02   1.623803E+02   1.623803E+02   1.623803E+02   1.623803E+02   3.813020E+01   3.813020E+01   3.813020E+01   3.813020E+01   3.813020E+01   3.813020E+01   3.813020E+01   5.288340E+01   5.288340E+01   5.288340E+01   5.288340E+01   5.288340E+01   9.184254E+01   9.184254E+01   9.184254E+01   9.184254E+01   1.614785E+02   1.614785E+02   1.614785E+02   1.885421E+02   1.885421E+02   3.472851E+02   3.472851E+02   2.316518E+02   2.316518E+02   5.754619E+02   1.788681E+02   2.544190E+02   2.544190E+02   2.155909E+02   9.011858E+01   3.828909E+01   1.546607E+01   4.916968E+01   8.162140E+01   4.571157E+01   5.651470E+01   2.453240E+01   7.427329E+01   1.047038E+02   1.353015E+02   9.994349E+01   3.927791E+01   1.534252E+01   4.236106E+01   3.417654E+01   2.798446E+01   2.984326E+01   1.100986E+02   9.707916E+01   9.906882E+01   1.114406E+02   4.720911E+01   2.860905E+01   1.269116E+02   4.389543E+02   3.411234E+02   8.031615E+01   3.164094E+01   5.937242E+01   2.625061E+02   5.918542E+01   1.304781E+02   1.060195E+02   8.440009E+01   2.944987E+01   5.234506E+01   8.916917E+01