# LPF package for  MODFLOW-2005, generated by Flopy.
        53    -1E+30         0  
         1
         0
   0.000000E+00
         0
         0
INTERNAL               1 (207E15.6) -1 #hk layer 1                    
   1.118978E+02   1.240337E+02   8.068056E+01   2.715598E+02   1.581767E+02   1.406848E+02   2.431002E+02   7.817371E+02   4.693038E+02   2.803863E+02   3.110608E+02   3.181743E+02   7.041232E+02   1.166690E+03   2.809668E+02   2.634621E+02   1.603510E+02   1.202167E+02   1.206222E+02   5.223531E+01   2.526275E+01   1.295226E+01   8.564473E+00   1.552068E+01   2.529308E+01   3.836258E+01   6.177794E+01   1.388162E+02   4.502160E+01   1.168828E+02   7.061481E+01   7.337536E+01   4.931993E+01   2.213676E+01   1.228074E+01   1.059355E+01   1.606717E+01   2.330549E+01   4.885531E+01   1.426478E+02   1.458033E+02   5.809338E+01   1.292298E+02   6.167826E+01   1.223206E+02   1.052505E+02   1.059020E+02   6.510273E+01   4.681440E+01   6.934245E+01   1.663574E+02   1.786231E+02   2.110941E+02   2.202961E+02   3.998312E+02   5.405750E+02   3.107515E+02   7.371507E+01   1.729498E+01   1.411472E+01   1.983568E+01   3.644094E+01   1.185278E+02   4.262802E+02   1.148454E+02   7.468294E+01   1.583080E+02   1.668148E+02   1.077901E+02   8.554636E+01   1.277061E+02   1.018171E+02   7.131100E+01   2.885027E+01   1.289655E+02   2.874910E+02   1.929511E+02   1.596037E+02   1.160565E+02   2.752315E+02   7.236263E+02   1.368309E+02   3.261037E+01   1.427073E+01   1.135149E+01   1.677506E+01   4.905754E+01   1.145223E+02   1.640494E+02   7.825679E+01   7.825679E+01   1.045156E+02   2.798765E+02   2.798765E+02   1.384523E+02   9.923411E+01   9.923411E+01   1.493840E+02   1.493840E+02   1.493840E+02   1.881852E+02   1.881852E+02   1.881852E+02   6.571476E+01   6.571476E+01   6.571476E+01   6.571476E+01   6.571476E+01   4.674131E+01   4.674131E+01   4.674131E+01   4.674131E+01   4.674131E+01   5.793964E+01   5.793964E+01   5.793964E+01   5.793964E+01   5.793964E+01   5.793964E+01   5.793964E+01   2.358665E+02   2.358665E+02   2.358665E+02   2.358665E+02   2.358665E+02   2.358665E+02   2.358665E+02   2.358665E+02   2.358665E+02   2.358665E+02   7.560826E+01   7.560826E+01   7.560826E+01   7.560826E+01   7.560826E+01   7.560826E+01   7.560826E+01   7.560826E+01   7.560826E+01   1.516123E+02   1.516123E+02   1.516123E+02   1.516123E+02   1.516123E+02   1.516123E+02   1.516123E+02   1.184990E+02   1.184990E+02   1.184990E+02   1.184990E+02   1.184990E+02   5.787854E+01   5.787854E+01   5.787854E+01   5.787854E+01   5.658244E+01   5.658244E+01   5.658244E+01   2.753082E+01   2.753082E+01   6.495579E+01   6.495579E+01   4.776900E+01   4.776900E+01   1.118426E+02   1.224448E+02   1.167879E+02   1.167879E+02   3.018664E+02   1.739638E+02   1.740215E+02   1.489803E+02   1.005401E+02   1.926619E+02   6.916805E+01   1.163942E+02   5.674553E+01   5.118134E+01   2.991800E+01   7.605447E+01   5.151502E+01   3.478982E+01   9.704121E+01   2.651790E+02   1.724416E+02   8.765865E+01   4.205824E+01   2.116335E+01   5.241472E+01   1.122546E+02   3.309020E+02   1.567751E+02   1.141166E+02   1.405449E+02   6.337039E+01   2.191889E+01   3.446824E+01   9.433134E+01   2.421930E+02   2.571678E+02   1.362563E+02   3.447410E+02   3.333716E+02   9.548207E+01   3.152325E+01   7.168298E+01   7.019460E+01
   3.263911E+02   1.505422E+02   9.118000E+01   1.674580E+02   1.737767E+02   2.306151E+02   2.839158E+02   5.870170E+02   5.430617E+02   3.615471E+02   3.936002E+02   4.643935E+02   1.070526E+03   5.438424E+02   3.109865E+02   1.287057E+02   1.299292E+02   6.195121E+01   9.282721E+01   7.014664E+01   3.385509E+01   1.577704E+01   1.246243E+01   7.549467E+00   2.492406E+01   4.366659E+01   7.473858E+01   9.253136E+01   5.021818E+01   8.686284E+01   8.644601E+01   6.417144E+01   4.343246E+01   2.625214E+01   2.615620E+01   1.872785E+01   2.175297E+01   1.678609E+01   4.096693E+01   1.536439E+02   1.119015E+02   1.077309E+02   1.554375E+02   7.359853E+01   9.495554E+01   1.026768E+02   1.970885E+02   6.333587E+01   7.533321E+01   1.820401E+02   1.636069E+02   3.173839E+02   2.359530E+02   2.090925E+02   2.913880E+02   2.900067E+02   2.195420E+02   9.574580E+01   1.538969E+01   2.414047E+01   2.240586E+01   8.273693E+01   1.404529E+02   2.798412E+02   1.399868E+02   9.291602E+01   6.046437E+01   5.602166E+01   1.030678E+02   6.748627E+01   8.241019E+01   7.912409E+01   5.724022E+01   4.183818E+01   1.055888E+02   2.595944E+02   2.369762E+02   1.632814E+02   1.523233E+02   3.987174E+02   1.029165E+03   2.315517E+02   1.541070E+01   1.071339E+01   9.795922E+00   2.959513E+01   2.239560E+01   6.276572E+01   8.278483E+01   7.830020E+01   7.830020E+01   1.103402E+02   2.310784E+02   2.310784E+02   1.362415E+02   8.354505E+01   8.354505E+01   1.555929E+02   1.555929E+02   1.555929E+02   9.837936E+01   9.837936E+01   9.837936E+01   7.408995E+01   7.408995E+01   7.408995E+01   7.408995E+01   7.408995E+01   1.003852E+02   1.003852E+02   1.003852E+02   1.003852E+02   1.003852E+02   1.196638E+02   1.196638E+02   1.196638E+02   1.196638E+02   1.196638E+02   1.196638E+02   1.196638E+02   1.675918E+02   1.675918E+02   1.675918E+02   1.675918E+02   1.675918E+02   1.675918E+02   1.675918E+02   1.675918E+02   1.675918E+02   1.675918E+02   1.010260E+02   1.010260E+02   1.010260E+02   1.010260E+02   1.010260E+02   1.010260E+02   1.010260E+02   1.010260E+02   1.010260E+02   1.774382E+02   1.774382E+02   1.774382E+02   1.774382E+02   1.774382E+02   1.774382E+02   1.774382E+02   8.731686E+01   8.731686E+01   8.731686E+01   8.731686E+01   8.731686E+01   6.808927E+01   6.808927E+01   6.808927E+01   6.808927E+01   5.621069E+01   5.621069E+01   5.621069E+01   3.417331E+01   3.417331E+01   8.955609E+01   8.955609E+01   1.005775E+02   1.005775E+02   1.764569E+02   1.817217E+02   1.773032E+02   1.773032E+02   1.925575E+02   1.245856E+02   1.401875E+02   1.302853E+02   1.177514E+02   1.513351E+02   4.047390E+01   6.246358E+01   6.254514E+01   7.310456E+01   5.157445E+01   3.197562E+01   5.005304E+01   7.718044E+01   1.285869E+02   3.204268E+02   2.616119E+02   1.401956E+02   4.647559E+01   3.483362E+01   4.431329E+01   1.044714E+02   2.406562E+02   1.927522E+02   1.598657E+02   1.589504E+02   3.442132E+01   2.690081E+01   6.033425E+01   1.287360E+02   3.426630E+02   4.583893E+02   3.222094E+02   1.815685E+02   1.769532E+02   3.822962E+01   9.850923E+01   3.867647E+01   6.804472E+01
   3.238551E+02   3.242681E+02   1.040987E+02   1.527165E+02   1.376078E+02   1.330324E+02   3.445540E+02   6.025793E+02   9.417862E+01   3.837539E+02   1.471841E+02   1.274284E+02   2.806685E+02   5.066588E+02   4.771646E+02   8.764027E+01   1.990744E+02   7.533402E+01   6.985573E+01   4.903193E+01   2.634795E+01   2.164399E+01   2.315172E+01   1.427259E+01   3.428360E+01   9.222120E+01   9.640063E+01   5.400375E+01   4.705791E+01   5.428111E+01   3.672924E+01   6.719595E+01   3.241422E+01   6.282523E+01   6.109783E+01   9.026766E+01   2.738545E+01   5.145724E+01   3.353016E+01   1.119932E+02   9.786781E+01   1.146121E+02   4.796873E+01   1.266767E+02   5.068749E+01   1.067864E+02   6.462778E+01   8.132487E+01   8.920003E+01   1.452007E+02   1.939617E+02   1.440811E+02   3.146876E+02   3.156647E+02   3.015251E+02   1.478648E+02   1.154931E+02   1.118600E+02   2.301490E+01   2.845676E+01   1.451608E+01   4.056416E+01   9.132822E+01   2.080062E+02   1.333431E+02   7.663127E+01   1.064700E+02   3.156561E+01   5.524431E+01   6.228992E+01   6.608441E+01   3.656405E+01   4.339020E+01   2.856169E+01   1.294331E+02   2.049708E+02   1.937045E+02   7.613940E+01   9.159232E+01   5.145466E+02   7.320663E+02   2.585582E+02   1.641242E+01   8.483872E+00   8.473817E+00   3.407976E+01   3.446728E+01   3.474473E+01   3.678692E+01   5.324749E+01   5.324749E+01   1.965807E+02   1.073685E+02   1.073685E+02   8.556289E+01   7.610493E+01   7.610493E+01   9.941229E+01   9.941229E+01   9.941229E+01   5.892789E+01   5.892789E+01   5.892789E+01   1.179871E+02   1.179871E+02   1.179871E+02   1.179871E+02   1.179871E+02   6.865683E+01   6.865683E+01   6.865683E+01   6.865683E+01   6.865683E+01   6.088010E+01   6.088010E+01   6.088010E+01   6.088010E+01   6.088010E+01   6.088010E+01   6.088010E+01   9.961203E+01   9.961203E+01   9.961203E+01   9.961203E+01   9.961203E+01   9.961203E+01   9.961203E+01   9.961203E+01   9.961203E+01   9.961203E+01   8.391479E+01   8.391479E+01   8.391479E+01   8.391479E+01   8.391479E+01   8.391479E+01   8.391479E+01   8.391479E+01   8.391479E+01   1.108988E+02   1.108988E+02   1.108988E+02   1.108988E+02   1.108988E+02   1.108988E+02   1.108988E+02   1.179905E+02   1.179905E+02   1.179905E+02   1.179905E+02   1.179905E+02   7.086400E+01   7.086400E+01   7.086400E+01   7.086400E+01   6.252641E+01   6.252641E+01   6.252641E+01   5.247266E+01   5.247266E+01   7.199309E+01   7.199309E+01   7.962749E+01   7.962749E+01   1.112582E+02   1.600588E+02   2.318811E+02   2.318811E+02   1.688187E+02   2.379713E+02   1.567623E+02   1.561347E+02   1.634246E+02   7.430849E+01   4.280318E+01   4.940838E+01   5.670286E+01   3.906761E+01   3.500156E+01   3.662544E+01   1.052264E+02   4.533761E+01   1.652415E+02   3.831713E+02   3.361856E+02   1.082542E+02   3.530620E+01   4.166058E+01   2.298733E+01   3.923441E+01   2.002807E+02   1.632756E+02   4.053751E+02   7.804053E+01   2.151425E+01   3.924276E+01   1.798531E+01   7.292918E+01   1.723763E+02   5.848887E+02   3.696798E+02   4.117163E+02   1.831464E+02   8.072578E+01   4.746515E+01   5.123214E+01   6.850408E+01
   2.755114E+02   1.658717E+02   1.118868E+02   9.087108E+01   4.984900E+01   9.887695E+01   2.657607E+02   2.950362E+02   3.479403E+02   3.699616E+02   1.400198E+02   1.310294E+02   1.678752E+02   3.512310E+02   3.941976E+02   8.550320E+01   1.919838E+02   8.324147E+01   5.206013E+01   3.065195E+01   2.602977E+01   2.259780E+01   1.583368E+01   4.014624E+01   7.777971E+01   1.653409E+02   2.326618E+02   4.557265E+01   4.254963E+01   1.381732E+02   7.236983E+01   1.065725E+02   6.301874E+01   1.627792E+02   2.055128E+02   2.601428E+02   4.217576E+01   1.035777E+02   6.601168E+01   1.183376E+02   9.221507E+01   6.326644E+01   6.792713E+01   7.144404E+01   4.261786E+01   1.074975E+02   4.956498E+01   4.760062E+01   7.714641E+01   9.288023E+01   8.552243E+01   1.165386E+02   1.813943E+02   1.221260E+02   2.900861E+02   1.064754E+02   1.258704E+02   4.000597E+01   3.439392E+01   3.442330E+01   1.986706E+01   7.731215E+01   2.022845E+02   2.125387E+02   1.150502E+02   6.857594E+01   3.566223E+01   5.034185E+01   8.467592E+01   6.185716E+01   9.217113E+01   4.924755E+01   6.555878E+01   4.422196E+01   1.265073E+02   1.570576E+02   1.176110E+02   1.050840E+02   2.653300E+02   7.892541E+02   1.396156E+03   1.313001E+03   2.865198E+01   1.516117E+01   9.531599E+00   2.207997E+01   3.537772E+01   1.681568E+01   2.046029E+01   6.658676E+01   6.658676E+01   1.012150E+02   1.618906E+02   1.618906E+02   9.871442E+01   6.796044E+01   6.796044E+01   7.198289E+01   7.198289E+01   7.198289E+01   9.369233E+01   9.369233E+01   9.369233E+01   1.504700E+02   1.504700E+02   1.504700E+02   1.504700E+02   1.504700E+02   8.491203E+01   8.491203E+01   8.491203E+01   8.491203E+01   8.491203E+01   7.828516E+01   7.828516E+01   7.828516E+01   7.828516E+01   7.828516E+01   7.828516E+01   7.828516E+01   8.328673E+01   8.328673E+01   8.328673E+01   8.328673E+01   8.328673E+01   8.328673E+01   8.328673E+01   8.328673E+01   8.328673E+01   8.328673E+01   7.508699E+01   7.508699E+01   7.508699E+01   7.508699E+01   7.508699E+01   7.508699E+01   7.508699E+01   7.508699E+01   7.508699E+01   6.939973E+01   6.939973E+01   6.939973E+01   6.939973E+01   6.939973E+01   6.939973E+01   6.939973E+01   4.457485E+01   4.457485E+01   4.457485E+01   4.457485E+01   4.457485E+01   4.369390E+01   4.369390E+01   4.369390E+01   4.369390E+01   8.001423E+01   8.001423E+01   8.001423E+01   8.207919E+01   8.207919E+01   1.106789E+02   1.106789E+02   1.118338E+02   1.118338E+02   6.724335E+01   9.524259E+01   1.796859E+02   1.796859E+02   1.556694E+02   3.224072E+02   2.178717E+02   3.701611E+02   2.153235E+02   9.699042E+01   4.711840E+01   7.721810E+01   4.765597E+01   2.415599E+01   4.968734E+01   3.191352E+01   8.249849E+01   4.701719E+01   1.209895E+02   2.118904E+02   1.822541E+02   1.119817E+02   7.078479E+01   2.332870E+01   1.645788E+01   4.831096E+01   9.848100E+01   1.102006E+02   2.285693E+02   6.617550E+01   3.827017E+01   3.150563E+01   1.122394E+01   4.542291E+01   1.662543E+02   2.795347E+02   4.533238E+02   6.831223E+02   3.901671E+02   7.518406E+01   7.092941E+01   7.867909E+01   1.013921E+02
   2.532070E+02   6.245805E+01   5.243761E+01   6.322865E+01   4.200702E+01   1.403907E+02   2.765746E+02   5.497275E+02   4.328935E+02   2.093931E+02   1.508503E+02   8.005371E+01   2.026383E+02   1.828063E+02   2.620307E+02   1.136430E+02   1.238276E+02   1.191141E+02   1.012266E+02   5.772590E+01   2.807047E+01   2.414793E+01   2.271215E+01   6.757761E+01   9.111697E+01   5.930285E+01   1.158678E+02   3.343647E+01   5.140202E+01   9.633599E+01   7.680329E+01   1.300181E+02   5.823163E+01   1.238138E+02   3.295862E+02   1.400319E+02   7.800992E+01   4.924398E+01   5.653568E+01   1.057451E+02   7.753905E+01   7.748869E+01   9.865705E+01   2.473322E+01   2.306594E+01   5.517519E+01   4.863014E+01   1.919338E+01   5.225163E+01   5.001317E+01   2.540656E+02   1.085776E+02   2.054121E+02   1.260301E+02   1.620461E+02   5.255307E+01   1.064064E+02   2.625491E+01   2.051523E+01   4.937379E+01   5.311974E+01   1.606140E+02   1.215401E+02   2.523082E+02   8.161327E+01   1.204574E+02   4.721973E+01   7.963672E+01   1.156975E+02   1.290659E+02   6.606007E+01   2.311419E+01   3.713662E+01   9.875078E+01   1.174730E+02   2.758663E+02   6.972289E+01   2.135262E+02   3.211989E+02   1.066332E+03   1.979149E+03   6.786924E+02   1.067378E+02   2.516857E+01   2.438773E+01   9.084169E+01   3.161013E+01   1.423319E+01   1.849555E+01   5.061582E+01   5.061582E+01   3.898216E+01   5.300435E+01   5.300435E+01   1.795273E+02   1.726030E+02   1.726030E+02   1.586929E+02   1.586929E+02   1.586929E+02   1.132312E+02   1.132312E+02   1.132312E+02   1.463125E+02   1.463125E+02   1.463125E+02   1.463125E+02   1.463125E+02   1.047410E+02   1.047410E+02   1.047410E+02   1.047410E+02   1.047410E+02   1.811534E+02   1.811534E+02   1.811534E+02   1.811534E+02   1.811534E+02   1.811534E+02   1.811534E+02   7.899374E+01   7.899374E+01   7.899374E+01   7.899374E+01   7.899374E+01   7.899374E+01   7.899374E+01   7.899374E+01   7.899374E+01   7.899374E+01   8.845949E+01   8.845949E+01   8.845949E+01   8.845949E+01   8.845949E+01   8.845949E+01   8.845949E+01   8.845949E+01   8.845949E+01   2.518295E+01   2.518295E+01   2.518295E+01   2.518295E+01   2.518295E+01   2.518295E+01   2.518295E+01   3.078366E+01   3.078366E+01   3.078366E+01   3.078366E+01   3.078366E+01   3.560840E+01   3.560840E+01   3.560840E+01   3.560840E+01   7.117289E+01   7.117289E+01   7.117289E+01   1.367887E+02   1.367887E+02   6.685410E+01   6.685410E+01   9.702863E+01   9.702863E+01   5.546978E+01   9.561682E+01   3.118885E+02   3.118885E+02   1.426623E+02   3.974093E+02   4.731111E+02   1.078577E+03   2.251955E+02   5.078765E+01   4.422531E+01   1.120150E+02   2.771216E+01   1.268600E+01   1.981829E+01   1.995178E+01   5.911723E+01   8.009129E+01   1.825051E+02   1.821031E+02   2.284000E+02   2.129674E+02   6.082663E+01   1.641332E+01   2.349886E+01   4.343630E+01   4.314452E+01   6.152656E+01   3.189183E+02   1.892088E+02   6.663435E+01   3.909799E+01   1.244050E+01   1.781536E+01   1.580309E+02   2.304262E+02   7.785671E+02   5.196905E+02   1.944926E+02   8.379365E+01   5.757213E+01   1.346833E+02   1.622459E+02
   1.804485E+02   1.507619E+02   7.912724E+01   4.486098E+01   4.941272E+01   7.011428E+01   2.141089E+02   3.975850E+02   4.571461E+02   2.922959E+02   1.605406E+02   6.322385E+01   6.662910E+01   7.482847E+01   7.309560E+01   1.295750E+02   2.303199E+02   2.264713E+02   1.823185E+02   6.296867E+01   5.756615E+01   3.080679E+01   2.442094E+01   6.014806E+01   4.685278E+01   3.628796E+01   5.277836E+01   1.670740E+01   4.962423E+01   7.027627E+01   4.677445E+01   9.119888E+01   1.584999E+02   1.744872E+02   2.319979E+02   5.621391E+01   7.312421E+01   7.351883E+01   1.006165E+02   1.423366E+02   8.862813E+01   5.014828E+01   4.882795E+01   4.011606E+01   3.011459E+01   2.400726E+01   3.787169E+01   1.775286E+01   4.089649E+01   2.736643E+01   1.462852E+02   1.361838E+02   2.410094E+02   1.120421E+02   7.481027E+01   7.973867E+01   5.204736E+01   4.667291E+01   3.793027E+01   1.042625E+02   7.397218E+01   1.235262E+02   1.048653E+02   1.939149E+02   1.303627E+02   7.980908E+01   1.324131E+02   8.491812E+01   3.934706E+01   4.306556E+01   4.790453E+01   5.484709E+01   5.548246E+01   6.372876E+01   1.012573E+02   4.190746E+02   1.650502E+02   9.332642E+01   2.962280E+02   9.837498E+02   3.909129E+03   9.114860E+02   1.804206E+02   5.885495E+01   4.964159E+01   2.628173E+02   6.133389E+01   1.830001E+01   2.668137E+01   4.981105E+01   4.981105E+01   6.173244E+01   9.066081E+01   9.066081E+01   1.468205E+02   1.675968E+02   1.675968E+02   9.349992E+01   9.349992E+01   9.349992E+01   1.810760E+02   1.810760E+02   1.810760E+02   1.370095E+02   1.370095E+02   1.370095E+02   1.370095E+02   1.370095E+02   1.672218E+02   1.672218E+02   1.672218E+02   1.672218E+02   1.672218E+02   6.936434E+01   6.936434E+01   6.936434E+01   6.936434E+01   6.936434E+01   6.936434E+01   6.936434E+01   5.142133E+01   5.142133E+01   5.142133E+01   5.142133E+01   5.142133E+01   5.142133E+01   5.142133E+01   5.142133E+01   5.142133E+01   5.142133E+01   4.279173E+01   4.279173E+01   4.279173E+01   4.279173E+01   4.279173E+01   4.279173E+01   4.279173E+01   4.279173E+01   4.279173E+01   2.509334E+01   2.509334E+01   2.509334E+01   2.509334E+01   2.509334E+01   2.509334E+01   2.509334E+01   4.556749E+01   4.556749E+01   4.556749E+01   4.556749E+01   4.556749E+01   3.001838E+01   3.001838E+01   3.001838E+01   3.001838E+01   9.788393E+01   9.788393E+01   9.788393E+01   1.457512E+02   1.457512E+02   6.224938E+01   6.224938E+01   5.669115E+01   5.669115E+01   4.800733E+01   3.170768E+01   1.638577E+02   1.638577E+02   2.199798E+02   5.360298E+02   3.276014E+02   1.121046E+03   2.737134E+02   1.817692E+02   1.696525E+02   6.136149E+01   2.509417E+01   2.505357E+01   1.837990E+01   4.040382E+01   1.215647E+02   7.195269E+01   1.582168E+02   1.053741E+02   3.041345E+02   1.539094E+02   4.387888E+01   1.915694E+01   1.712595E+01   3.136328E+01   2.754233E+01   4.848281E+01   4.185555E+02   3.065382E+02   1.085129E+02   3.715434E+01   1.251403E+01   1.669002E+01   4.651714E+01   8.889806E+01   1.031749E+03   3.607115E+02   1.434828E+02   1.632839E+02   4.680819E+01   2.804662E+02   8.164761E+01
   1.104157E+02   8.154575E+01   6.472719E+01   3.329990E+01   4.991352E+01   9.489019E+01   1.705939E+02   3.604748E+02   2.787805E+02   1.787525E+02   2.412108E+02   5.682405E+01   9.551801E+01   2.411675E+01   6.802430E+01   2.290758E+02   2.685724E+02   3.444465E+02   8.645105E+01   4.408426E+01   8.041723E+01   4.138029E+01   2.714440E+01   3.660923E+01   2.869781E+01   3.278815E+01   6.072835E+01   4.277927E+01   4.579065E+01   5.924788E+01   3.010844E+01   1.162920E+02   1.695057E+02   8.945826E+01   1.299976E+02   2.960474E+01   6.797018E+01   3.312615E+01   9.101624E+01   1.492461E+02   8.805952E+01   8.423613E+01   8.515660E+01   4.032256E+01   2.043322E+01   1.373232E+01   2.416646E+01   2.689344E+01   5.166585E+01   5.491813E+01   1.144788E+02   2.369818E+02   2.147770E+02   2.451421E+02   6.765232E+01   7.889466E+01   4.630067E+01   6.093139E+01   6.907735E+01   1.025518E+02   2.181752E+02   7.824380E+01   1.868691E+02   2.220415E+02   1.660271E+02   5.089080E+01   6.186235E+01   3.208531E+01   5.518829E+01   7.089861E+01   4.155455E+01   5.574001E+01   1.529395E+02   1.165771E+02   1.736525E+02   2.563496E+02   3.104853E+02   9.107602E+01   1.498707E+02   9.363986E+02   2.124916E+03   6.288516E+02   4.103069E+02   1.561152E+02   9.568436E+01   2.941811E+02   2.941499E+01   3.127930E+01   5.617479E+01   8.703838E+01   8.703838E+01   1.174095E+02   7.940771E+01   7.940771E+01   2.135248E+02   5.058148E+02   5.058148E+02   3.134890E+02   3.134890E+02   3.134890E+02   1.322571E+02   1.322571E+02   1.322571E+02   1.095304E+02   1.095304E+02   1.095304E+02   1.095304E+02   1.095304E+02   2.451232E+02   2.451232E+02   2.451232E+02   2.451232E+02   2.451232E+02   6.806956E+01   6.806956E+01   6.806956E+01   6.806956E+01   6.806956E+01   6.806956E+01   6.806956E+01   4.855090E+01   4.855090E+01   4.855090E+01   4.855090E+01   4.855090E+01   4.855090E+01   4.855090E+01   4.855090E+01   4.855090E+01   4.855090E+01   5.206959E+01   5.206959E+01   5.206959E+01   5.206959E+01   5.206959E+01   5.206959E+01   5.206959E+01   5.206959E+01   5.206959E+01   1.041814E+01   1.041814E+01   1.041814E+01   1.041814E+01   1.041814E+01   1.041814E+01   1.041814E+01   7.708687E+01   7.708687E+01   7.708687E+01   7.708687E+01   7.708687E+01   5.366417E+01   5.366417E+01   5.366417E+01   5.366417E+01   6.048943E+01   6.048943E+01   6.048943E+01   7.426916E+01   7.426916E+01   1.235076E+01   1.235076E+01   2.688743E+01   2.688743E+01   3.524696E+01   3.373738E+01   7.522870E+01   7.522870E+01   1.247426E+02   2.735174E+02   5.924337E+02   8.897957E+02   3.703749E+02   1.215703E+02   1.726152E+02   4.999044E+01   2.272424E+01   4.687069E+01   1.453856E+01   3.746086E+01   7.807935E+01   4.261275E+01   1.063195E+02   4.490567E+01   1.156099E+02   1.242052E+02   4.266188E+01   4.771061E+01   2.231125E+01   2.444021E+01   3.115994E+01   1.085384E+02   4.454801E+02   1.342894E+02   1.008446E+02   1.130835E+02   2.645457E+01   2.808278E+01   6.192801E+01   1.195930E+02   2.554736E+02   2.601577E+02   6.774885E+01   9.273844E+01   1.929289E+01   1.453468E+02   5.266520E+01
   7.514816E+01   1.069836E+02   7.409671E+01   5.143314E+01   9.803919E+01   1.660098E+02   2.816376E+02   2.593871E+02   1.827072E+02   1.134755E+02   1.217783E+02   4.058090E+01   5.006966E+01   2.499960E+01   5.148106E+01   1.703739E+02   3.951928E+02   2.960999E+02   1.724345E+02   1.134232E+02   7.975504E+01   4.456618E+01   4.524748E+01   2.069480E+01   2.474097E+01   4.329504E+01   3.780975E+01   6.181389E+01   3.242979E+01   2.101241E+01   6.618799E+01   1.022050E+02   7.231126E+01   3.109653E+01   8.743591E+01   4.075734E+01   6.095783E+01   2.874253E+01   4.501474E+01   8.192178E+01   8.497751E+01   1.738127E+02   4.632014E+01   6.752879E+01   2.579874E+01   1.337640E+01   1.749850E+01   3.454501E+01   4.227129E+01   1.673403E+02   1.272617E+02   1.464873E+02   1.823730E+02   2.672156E+02   1.596263E+02   8.800593E+01   4.779817E+01   3.955975E+01   9.953391E+01   1.572584E+02   2.477756E+02   1.856100E+02   2.624139E+02   2.653412E+02   1.167979E+02   2.821131E+01   8.474489E+01   1.475472E+02   6.751904E+01   4.263768E+01   2.032155E+01   9.586308E+01   1.577816E+02   2.314001E+02   1.146340E+02   1.778880E+02   2.608553E+02   6.547253E+01   1.567166E+02   6.787153E+02   3.359574E+02   8.358808E+02   5.614946E+02   2.561810E+02   2.044844E+02   5.575027E+02   1.736721E+02   1.099702E+02   6.534716E+01   4.189598E+01   4.189598E+01   8.051173E+01   6.113157E+01   6.113157E+01   2.882900E+02   3.028249E+02   3.028249E+02   3.306075E+02   3.306075E+02   3.306075E+02   1.741453E+02   1.741453E+02   1.741453E+02   9.912579E+01   9.912579E+01   9.912579E+01   9.912579E+01   9.912579E+01   3.845968E+02   3.845968E+02   3.845968E+02   3.845968E+02   3.845968E+02   1.300584E+02   1.300584E+02   1.300584E+02   1.300584E+02   1.300584E+02   1.300584E+02   1.300584E+02   6.471920E+01   6.471920E+01   6.471920E+01   6.471920E+01   6.471920E+01   6.471920E+01   6.471920E+01   6.471920E+01   6.471920E+01   6.471920E+01   4.049964E+01   4.049964E+01   4.049964E+01   4.049964E+01   4.049964E+01   4.049964E+01   4.049964E+01   4.049964E+01   4.049964E+01   1.155659E+01   1.155659E+01   1.155659E+01   1.155659E+01   1.155659E+01   1.155659E+01   1.155659E+01   4.675773E+01   4.675773E+01   4.675773E+01   4.675773E+01   4.675773E+01   2.392994E+01   2.392994E+01   2.392994E+01   2.392994E+01   4.377362E+01   4.377362E+01   4.377362E+01   4.765919E+01   4.765919E+01   2.019230E+01   2.019230E+01   2.390132E+01   2.390132E+01   3.744625E+01   6.288700E+01   8.113057E+01   8.113057E+01   1.815307E+02   3.361278E+02   4.206221E+02   1.034274E+03   5.215237E+02   6.655596E+01   1.728292E+02   3.911971E+01   2.679978E+01   3.780321E+01   2.063982E+01   4.571121E+01   6.550912E+01   6.233597E+01   1.109410E+02   6.930226E+01   9.603006E+01   1.269879E+02   6.096027E+01   5.861461E+01   8.365292E+01   4.092748E+01   3.032718E+01   5.007275E+01   3.525258E+02   1.119309E+02   5.045794E+01   1.420261E+02   2.182502E+01   1.375929E+01   3.250071E+01   1.635078E+02   1.574970E+02   3.989399E+01   5.365582E+01   9.423781E+01   1.414796E+01   5.969808E+01   8.028571E+01
   5.340916E+01   4.396237E+01   5.669518E+01   1.228844E+02   8.234704E+01   1.655767E+02   2.823128E+02   2.065696E+02   1.146473E+02   1.663492E+02   5.976970E+01   4.164654E+01   5.157927E+01   3.936306E+01   7.748019E+01   1.568057E+02   3.217515E+02   2.818182E+02   1.863666E+02   4.064299E+02   4.649260E+01   6.367549E+01   3.270709E+01   3.757961E+01   2.370117E+01   7.841148E+01   2.658076E+01   4.497241E+01   4.480091E+01   3.320760E+01   3.737800E+01   7.362069E+01   7.668391E+01   1.986617E+01   8.058411E+01   4.804578E+01   1.064623E+02   1.705263E+01   7.652175E+01   1.003030E+02   1.139063E+02   3.978831E+02   1.012267E+02   4.599042E+01   1.832866E+01   1.660722E+01   1.892774E+01   3.855717E+01   5.549311E+01   1.381367E+02   1.897574E+02   1.920768E+02   2.587552E+02   2.492796E+02   2.160420E+02   1.909137E+02   1.386535E+02   6.038452E+01   9.853539E+01   2.384448E+02   2.245107E+02   1.315305E+02   1.256560E+02   3.352034E+02   1.175060E+02   6.448216E+01   2.115366E+02   1.638604E+02   5.638239E+01   3.924979E+01   1.758492E+01   7.765805E+01   1.865742E+02   2.056972E+02   2.462046E+02   2.902938E+02   2.782227E+02   2.489139E+02   2.682706E+02   4.517406E+02   2.588105E+02   5.323915E+02   4.516819E+02   6.335108E+02   3.665848E+02   8.008140E+02   2.148766E+02   5.872968E+01   3.610323E+01   5.788185E+01   5.788185E+01   6.325710E+01   1.358982E+02   1.358982E+02   2.725695E+02   9.343686E+02   9.343686E+02   3.230518E+02   3.230518E+02   3.230518E+02   2.195272E+02   2.195272E+02   2.195272E+02   2.697026E+02   2.697026E+02   2.697026E+02   2.697026E+02   2.697026E+02   4.578681E+02   4.578681E+02   4.578681E+02   4.578681E+02   4.578681E+02   8.265546E+01   8.265546E+01   8.265546E+01   8.265546E+01   8.265546E+01   8.265546E+01   8.265546E+01   6.220271E+01   6.220271E+01   6.220271E+01   6.220271E+01   6.220271E+01   6.220271E+01   6.220271E+01   6.220271E+01   6.220271E+01   6.220271E+01   3.670888E+01   3.670888E+01   3.670888E+01   3.670888E+01   3.670888E+01   3.670888E+01   3.670888E+01   3.670888E+01   3.670888E+01   1.043773E+01   1.043773E+01   1.043773E+01   1.043773E+01   1.043773E+01   1.043773E+01   1.043773E+01   5.545100E+01   5.545100E+01   5.545100E+01   5.545100E+01   5.545100E+01   2.171598E+01   2.171598E+01   2.171598E+01   2.171598E+01   4.480351E+01   4.480351E+01   4.480351E+01   6.447511E+01   6.447511E+01   1.081521E+01   1.081521E+01   4.858634E+01   4.858634E+01   5.958855E+01   1.403994E+02   5.674056E+01   5.674056E+01   1.344789E+02   4.348494E+02   3.642831E+02   1.071673E+03   3.738144E+02   1.876678E+02   1.589964E+02   4.955386E+01   3.484544E+01   3.096071E+01   5.923594E+01   1.466835E+02   4.488926E+01   6.028932E+01   5.361139E+01   9.957841E+01   1.690683E+02   5.887075E+02   1.059744E+02   7.892118E+01   6.665878E+01   3.950268E+01   3.607335E+01   5.721932E+01   2.576677E+02   2.497806E+02   6.968190E+01   5.727199E+01   8.485611E+00   2.163228E+01   3.845241E+01   6.215144E+01   8.599252E+01   3.047252E+01   5.919162E+01   4.394100E+01   3.210983E+01   5.070268E+01   3.315496E+01