# LPF package for  MODFLOW-2005, generated by Flopy.
        53    -1E+30         0  
         1
         0
   0.000000E+00
         0
         0
INTERNAL               1 (207E15.6) -1 #hk layer 1                    
   3.128019E-01   3.710792E-01   2.375062E-01   3.469231E-01   1.224023E-01   1.143106E-01   1.292486E-01   8.738370E-02   9.819416E-02   2.888187E-01   1.084406E-01   1.132698E-01   1.927845E-01   3.251807E-01   3.359438E-01   1.338203E-01   1.952105E-01   1.079900E-01   2.124512E-01   7.699494E-01   3.396439E-01   1.805473E-01   2.025611E-01   1.640157E-01   8.417670E-02   1.303232E-01   6.156385E-02   1.209569E-01   8.414012E-02   1.628745E-01   2.501290E-01   5.872866E-02   1.185581E-01   3.287326E-01   2.257961E-01   2.901922E-01   3.943660E-02   4.888888E-02   4.628293E-02   3.689372E-02   1.685783E-02   1.120707E-02   9.502664E-03   4.148534E-02   6.796362E-02   6.359862E-02   3.331742E-01   7.197593E-01   8.761457E-01   5.629892E-01   7.182369E-02   2.099332E-02   8.084766E-03   3.303569E-02   2.703327E-01   3.176899E-01   3.062854E-01   2.111350E-01   3.421411E-02   6.328440E-02   9.294427E-02   1.244104E-01   9.676080E-02   1.036168E-01   1.783538E-01   1.409746E-01   2.523171E-01   1.116642E-01   3.715220E-01   1.724857E-01   2.198445E-01   2.213019E-01   2.423953E-01   2.320479E-01   2.100813E-01   1.528075E-01   9.960657E-02   1.137514E-01   5.877801E-02   7.234416E-02   1.520782E-01   1.668860E-01   2.362905E-01   3.965763E-01   5.885029E-01   2.441175E-01   9.993272E-02   9.085885E-02   9.825484E-02   2.158494E-01   2.158494E-01   3.444492E-01   1.309016E-01   1.309016E-01   1.277923E-01   5.455695E-02   5.455695E-02   1.064695E-01   1.064695E-01   1.064695E-01   1.240391E-01   1.240391E-01   1.240391E-01   9.496598E-02   9.496598E-02   9.496598E-02   9.496598E-02   9.496598E-02   7.320498E-02   7.320498E-02   7.320498E-02   7.320498E-02   7.320498E-02   1.729640E-01   1.729640E-01   1.729640E-01   1.729640E-01   1.729640E-01   1.729640E-01   1.729640E-01   4.235375E-01   4.235375E-01   4.235375E-01   4.235375E-01   4.235375E-01   4.235375E-01   4.235375E-01   4.235375E-01   4.235375E-01   4.235375E-01   3.640809E-01   3.640809E-01   3.640809E-01   3.640809E-01   3.640809E-01   3.640809E-01   3.640809E-01   3.640809E-01   3.640809E-01   2.419465E-01   2.419465E-01   2.419465E-01   2.419465E-01   2.419465E-01   2.419465E-01   2.419465E-01   6.539165E-02   6.539165E-02   6.539165E-02   6.539165E-02   6.539165E-02   1.043644E-01   1.043644E-01   1.043644E-01   1.043644E-01   1.418618E-01   1.418618E-01   1.418618E-01   3.208816E-01   3.208816E-01   3.686052E-01   3.686052E-01   1.753456E-01   1.753456E-01   2.721779E-01   1.199104E-01   1.083956E-01   1.083956E-01   3.011735E-01   1.994525E-01   9.948166E-02   4.842753E-02   1.415761E-01   7.025930E-02   1.226134E-01   1.149207E-01   3.903922E-02   3.703985E-02   4.357069E-02   4.306252E-02   2.184442E-02   6.363524E-02   8.036005E-02   1.148895E-01   6.979840E-02   5.017489E-02   3.675895E-02   1.058445E-01   1.703666E-01   7.744414E-02   4.421536E-02   3.624722E-02   3.635171E-02   3.181672E-02   6.169408E-02   6.396983E-02   1.053091E-01   2.216669E-01   6.885950E-02   1.672077E-01   1.421670E-01   3.048252E-01   1.888308E-01   1.080101E-01   2.514094E-01   8.911639E-02   4.237448E-02
   2.632677E-01   4.697366E-01   5.021308E-01   2.302599E-01   1.347106E-01   3.482916E-01   1.909881E-01   2.728772E-01   1.201968E-01   2.239974E-01   7.618539E-02   1.005033E-01   1.791587E-01   1.301425E-01   2.879997E-01   9.840941E-02   9.677138E-02   1.318732E-01   1.772047E-01   6.036265E-01   4.156135E-01   2.596398E-01   2.716565E-01   3.112065E-01   1.819308E-01   1.073573E-01   8.078372E-02   8.021948E-02   3.842390E-02   2.099430E-01   9.348317E-02   8.302973E-02   1.202474E-01   5.768254E-01   6.545355E-01   1.400442E-01   2.701189E-02   4.805271E-02   4.833380E-02   5.232501E-02   2.371116E-02   1.029300E-02   7.671422E-03   3.774554E-02   6.245995E-02   9.902775E-02   1.429816E-01   6.575175E-01   1.456208E+00   3.986803E-01   7.101392E-02   1.917184E-02   1.005850E-02   3.068958E-02   1.953206E-01   5.111881E-01   2.806424E-01   2.143673E-01   2.307329E-02   8.550022E-02   2.199681E-01   1.013452E-01   5.380011E-02   4.425425E-02   1.277169E-01   1.426987E-01   1.760251E-01   1.401111E-01   2.176376E-01   4.156530E-01   2.701116E-01   2.515661E-01   2.639053E-01   2.861665E-01   1.132042E-01   8.568309E-02   1.225951E-01   1.230727E-01   1.182387E-01   8.325969E-02   1.137608E-01   1.055002E-01   3.858136E-01   2.599056E-01   6.725801E-01   1.739310E-01   1.190479E-01   9.448002E-02   1.026575E-01   1.398928E-01   1.398928E-01   1.321296E-01   2.807267E-01   2.807267E-01   8.889805E-02   4.164650E-02   4.164650E-02   3.320719E-02   3.320719E-02   3.320719E-02   1.681401E-01   1.681401E-01   1.681401E-01   9.278768E-02   9.278768E-02   9.278768E-02   9.278768E-02   9.278768E-02   7.937983E-02   7.937983E-02   7.937983E-02   7.937983E-02   7.937983E-02   1.280846E-01   1.280846E-01   1.280846E-01   1.280846E-01   1.280846E-01   1.280846E-01   1.280846E-01   3.456683E-01   3.456683E-01   3.456683E-01   3.456683E-01   3.456683E-01   3.456683E-01   3.456683E-01   3.456683E-01   3.456683E-01   3.456683E-01   3.414534E-01   3.414534E-01   3.414534E-01   3.414534E-01   3.414534E-01   3.414534E-01   3.414534E-01   3.414534E-01   3.414534E-01   2.780112E-01   2.780112E-01   2.780112E-01   2.780112E-01   2.780112E-01   2.780112E-01   2.780112E-01   1.036982E-01   1.036982E-01   1.036982E-01   1.036982E-01   1.036982E-01   1.527569E-01   1.527569E-01   1.527569E-01   1.527569E-01   8.094126E-02   8.094126E-02   8.094126E-02   1.939871E-01   1.939871E-01   3.792448E-01   3.792448E-01   2.923160E-01   2.923160E-01   3.296665E-01   1.317884E-01   3.737411E-01   3.737411E-01   6.777932E-01   3.614445E-01   5.403929E-02   1.044530E-01   1.774108E-01   8.390740E-02   9.469458E-02   1.028870E-01   2.671614E-02   2.241281E-02   3.642156E-02   1.835900E-02   3.627188E-02   6.655831E-02   1.017590E-01   1.076677E-01   6.768285E-02   4.942021E-02   2.987681E-02   5.196249E-02   1.365064E-01   1.704510E-01   4.566007E-02   6.721205E-02   3.429253E-02   9.562889E-02   5.300529E-02   4.695481E-02   8.024412E-02   1.221085E-01   5.336231E-02   6.167809E-02   1.194335E-01   2.656118E-01   1.767040E-01   6.836288E-02   2.125523E-01   7.338464E-02   3.030424E-02
   2.338363E-01   3.412448E-01   6.493217E-01   1.280628E-01   8.464066E-02   2.218748E-01   1.755997E-01   3.026966E-01   2.310740E-01   1.906443E-01   1.347448E-01   1.835330E-01   1.131429E-01   7.640275E-02   8.716367E-02   6.330889E-02   7.043214E-02   1.303417E-01   1.626197E-01   3.751996E-01   1.718374E-01   2.473260E-01   3.546560E-01   3.253221E-01   2.147318E-01   6.541621E-02   6.809188E-02   3.314800E-02   8.582525E-02   8.753181E-02   8.498790E-02   1.366773E-01   2.762190E-01   5.650058E-01   1.289416E+00   2.383858E-01   3.757554E-02   2.670598E-02   9.926790E-02   6.547903E-02   1.565494E-02   2.279984E-02   8.876491E-03   1.304929E-02   3.174507E-02   6.207859E-02   9.968914E-02   6.213881E-01   1.044958E+00   2.669806E-01   4.317997E-02   2.006469E-02   2.999523E-02   7.803638E-02   3.728947E-02   8.722175E-02   1.478017E-01   3.384096E-01   4.493847E-02   8.679035E-02   1.584349E-01   8.959516E-02   9.278080E-02   9.113904E-02   1.572551E-01   1.671804E-01   6.034660E-02   9.289097E-02   1.542038E-01   3.212794E-01   5.730911E-01   2.125331E-01   1.551971E-01   1.844866E-01   5.864027E-02   6.314724E-02   7.455530E-02   1.852923E-01   8.403705E-02   1.002828E-01   2.738990E-01   1.447558E-01   1.589569E-01   2.243033E-01   3.564318E-01   1.338848E-01   7.208509E-02   1.382605E-01   2.382662E-01   1.562642E-01   1.562642E-01   7.455897E-02   2.266979E-01   2.266979E-01   6.237342E-02   4.400609E-02   4.400609E-02   4.101843E-02   4.101843E-02   4.101843E-02   7.559936E-02   7.559936E-02   7.559936E-02   1.321506E-01   1.321506E-01   1.321506E-01   1.321506E-01   1.321506E-01   1.079023E-01   1.079023E-01   1.079023E-01   1.079023E-01   1.079023E-01   1.982337E-01   1.982337E-01   1.982337E-01   1.982337E-01   1.982337E-01   1.982337E-01   1.982337E-01   2.808288E-01   2.808288E-01   2.808288E-01   2.808288E-01   2.808288E-01   2.808288E-01   2.808288E-01   2.808288E-01   2.808288E-01   2.808288E-01   1.864401E-01   1.864401E-01   1.864401E-01   1.864401E-01   1.864401E-01   1.864401E-01   1.864401E-01   1.864401E-01   1.864401E-01   2.994196E-01   2.994196E-01   2.994196E-01   2.994196E-01   2.994196E-01   2.994196E-01   2.994196E-01   2.229471E-01   2.229471E-01   2.229471E-01   2.229471E-01   2.229471E-01   1.432226E-01   1.432226E-01   1.432226E-01   1.432226E-01   1.046327E-01   1.046327E-01   1.046327E-01   2.354032E-01   2.354032E-01   2.816118E-01   2.816118E-01   3.465592E-01   3.465592E-01   1.992850E-01   6.766279E-02   3.745827E-01   3.745827E-01   9.002479E-01   3.560751E-01   1.087812E-01   1.537643E-01   1.087369E-01   9.758539E-02   1.797061E-01   1.255224E-01   4.205713E-02   2.291521E-02   2.937483E-02   1.703878E-02   5.601606E-02   2.624246E-02   7.446400E-02   8.133411E-02   4.245045E-02   4.638996E-02   2.823423E-02   2.798317E-02   6.106539E-02   2.207352E-01   1.155577E-01   5.978040E-02   3.825334E-02   1.719404E-01   9.852353E-02   4.152424E-02   7.149155E-02   2.058070E-01   7.203383E-02   5.111380E-02   8.043719E-02   1.971064E-01   1.546682E-01   4.976742E-02   2.285701E-01   1.496848E-01   6.446259E-02
   1.390989E-01   2.135137E-01   3.010288E-01   1.584541E-01   2.044224E-02   1.222476E-01   1.091095E-01   2.961327E-01   3.395430E-01   1.826046E-01   1.276645E-01   2.882894E-01   1.772398E-01   3.030730E-02   3.421745E-02   6.543234E-02   4.984000E-02   7.945052E-02   2.177260E-01   5.404097E-01   1.413417E-01   2.192697E-01   3.474839E-01   2.582683E-01   1.407068E-01   6.521305E-02   6.306030E-02   4.568891E-02   3.344548E-02   4.034944E-02   1.034118E-01   1.172275E-01   4.504574E-01   7.397069E-01   1.377927E+00   3.021283E-01   8.797994E-02   7.126345E-02   1.638251E-01   3.332681E-02   5.217873E-02   3.164257E-02   1.593590E-02   3.308447E-02   7.145783E-02   3.406198E-02   9.749819E-02   6.077940E-01   7.465462E-01   2.163996E-01   3.360616E-02   1.917396E-02   4.864771E-02   6.884933E-02   4.626415E-02   6.392910E-02   1.147835E-01   1.273869E-01   1.168189E-01   1.986538E-01   1.764525E-01   1.319566E-01   1.151805E-01   1.264597E-01   2.196032E-01   1.582752E-01   5.635836E-02   5.741265E-02   2.422495E-01   3.806585E-01   4.463821E-01   2.336040E-01   2.226898E-01   1.568155E-01   1.626678E-01   1.790415E-01   8.568928E-02   2.207148E-01   7.244730E-02   2.372425E-01   4.832678E-01   2.684924E-01   1.248641E-01   3.082275E-01   3.737902E-01   1.100470E-01   4.955507E-02   1.080554E-01   1.209053E-01   1.094163E-01   1.094163E-01   7.675756E-02   1.396697E-01   1.396697E-01   6.462041E-02   2.376052E-02   2.376052E-02   1.104580E-02   1.104580E-02   1.104580E-02   5.800951E-02   5.800951E-02   5.800951E-02   8.078770E-02   8.078770E-02   8.078770E-02   8.078770E-02   8.078770E-02   7.626536E-02   7.626536E-02   7.626536E-02   7.626536E-02   7.626536E-02   1.848155E-01   1.848155E-01   1.848155E-01   1.848155E-01   1.848155E-01   1.848155E-01   1.848155E-01   1.776791E-01   1.776791E-01   1.776791E-01   1.776791E-01   1.776791E-01   1.776791E-01   1.776791E-01   1.776791E-01   1.776791E-01   1.776791E-01   1.426498E-01   1.426498E-01   1.426498E-01   1.426498E-01   1.426498E-01   1.426498E-01   1.426498E-01   1.426498E-01   1.426498E-01   2.562675E-01   2.562675E-01   2.562675E-01   2.562675E-01   2.562675E-01   2.562675E-01   2.562675E-01   2.397675E-01   2.397675E-01   2.397675E-01   2.397675E-01   2.397675E-01   1.772178E-01   1.772178E-01   1.772178E-01   1.772178E-01   5.996386E-02   5.996386E-02   5.996386E-02   1.430782E-01   1.430782E-01   2.159869E-01   2.159869E-01   3.477633E-01   3.477633E-01   2.585798E-01   2.306599E-01   4.397648E-01   4.397648E-01   4.529563E-01   3.379437E-01   1.711299E-01   3.049712E-01   1.447504E-01   1.280993E-01   8.506217E-02   1.069905E-01   6.437605E-02   2.962760E-02   2.163901E-02   2.322035E-02   2.085104E-02   2.365966E-02   5.368657E-02   4.977172E-02   3.079355E-02   3.356894E-02   1.689857E-02   1.559533E-02   1.717531E-01   3.892462E-01   9.304828E-02   1.232321E-01   9.990974E-02   1.251356E-01   1.648026E-01   1.630744E-01   1.298523E-01   2.261901E-01   2.279420E-01   3.384985E-02   3.112098E-02   4.592445E-02   1.754782E-01   4.494471E-02   9.933009E-02   1.562952E-01   4.276152E-02
   8.116198E-02   1.743866E-01   1.018158E-01   1.650127E-01   3.869412E-02   8.484643E-02   1.378180E-01   1.643342E-01   2.274612E-01   1.352266E-01   6.751142E-02   1.756570E-01   1.514833E-01   3.356335E-02   4.261377E-02   4.199055E-02   3.139849E-02   4.608050E-02   1.584172E-01   3.905295E-01   1.549129E-01   7.537541E-02   1.954863E-01   2.548384E-01   7.101170E-02   1.076740E-01   4.970743E-02   3.436767E-02   3.058008E-02   7.789414E-02   5.491871E-02   1.218608E-01   5.777430E-01   1.623874E+00   1.219144E+00   4.464633E-01   1.666719E-01   1.030452E-01   1.112722E-01   6.728145E-02   7.313855E-02   5.772479E-02   1.044753E-02   2.154681E-02   3.783511E-02   2.936666E-02   1.202678E-01   4.395684E-01   6.475542E-01   1.213003E-01   6.027903E-02   2.316782E-02   5.722789E-02   2.822682E-02   4.227497E-02   4.412397E-02   1.731900E-01   7.988641E-02   6.322740E-02   2.164346E-01   1.808685E-01   3.489406E-01   1.905809E-01   2.197446E-01   9.257641E-02   1.104931E-01   3.133802E-02   5.419736E-02   1.515310E-01   1.872270E-01   2.482945E-01   1.351569E-01   2.577872E-01   1.603286E-01   1.033139E-01   9.299690E-02   2.204176E-01   1.539546E-01   7.372494E-02   1.019272E-01   2.297130E-01   3.284668E-01   1.596833E-01   2.950773E-01   2.955930E-01   2.925680E-01   9.790893E-02   1.296474E-01   1.059478E-01   7.066554E-02   7.066554E-02   1.361385E-01   1.711597E-01   1.711597E-01   1.123366E-01   2.973281E-02   2.973281E-02   1.998472E-02   1.998472E-02   1.998472E-02   8.296514E-02   8.296514E-02   8.296514E-02   1.097045E-01   1.097045E-01   1.097045E-01   1.097045E-01   1.097045E-01   7.730598E-02   7.730598E-02   7.730598E-02   7.730598E-02   7.730598E-02   6.050150E-02   6.050150E-02   6.050150E-02   6.050150E-02   6.050150E-02   6.050150E-02   6.050150E-02   9.611928E-02   9.611928E-02   9.611928E-02   9.611928E-02   9.611928E-02   9.611928E-02   9.611928E-02   9.611928E-02   9.611928E-02   9.611928E-02   7.707533E-02   7.707533E-02   7.707533E-02   7.707533E-02   7.707533E-02   7.707533E-02   7.707533E-02   7.707533E-02   7.707533E-02   3.363970E-01   3.363970E-01   3.363970E-01   3.363970E-01   3.363970E-01   3.363970E-01   3.363970E-01   1.570860E-01   1.570860E-01   1.570860E-01   1.570860E-01   1.570860E-01   1.688556E-01   1.688556E-01   1.688556E-01   1.688556E-01   1.036235E-01   1.036235E-01   1.036235E-01   9.872515E-02   9.872515E-02   2.740183E-01   2.740183E-01   3.631545E-01   3.631545E-01   4.815643E-01   3.222792E-01   6.244268E-01   6.244268E-01   2.642302E-01   2.713382E-01   2.003824E-01   2.112687E-01   1.978677E-01   7.596999E-02   1.091092E-01   9.602395E-02   7.432295E-02   2.039326E-02   3.078322E-02   6.017191E-02   1.807182E-02   1.684859E-02   3.689457E-02   3.938575E-02   1.787105E-02   2.233244E-02   1.323800E-02   1.849305E-02   8.523080E-02   1.941012E-01   8.075228E-02   8.495109E-02   7.488865E-02   1.313867E-01   6.038060E-02   9.453684E-02   8.146285E-02   1.264173E-01   1.812826E-01   2.259549E-02   2.160907E-02   5.934940E-02   6.567650E-02   3.626698E-02   4.807602E-02   7.799861E-02   8.696267E-02
   4.549104E-02   5.513370E-02   6.565660E-02   2.266835E-01   3.301183E-02   6.768146E-02   7.538252E-02   9.662680E-02   6.609757E-02   8.114233E-02   1.380377E-01   1.387368E-01   1.124301E-01   1.040056E-01   2.850994E-02   2.403283E-02   2.634025E-02   1.093668E-01   2.202345E-01   2.613265E-01   2.893823E-01   6.758214E-02   1.514479E-01   1.332546E-01   1.203127E-01   1.944733E-01   5.882867E-02   6.078531E-02   2.982477E-02   5.003178E-02   5.210419E-02   1.022756E-01   5.623590E-01   1.227605E+00   1.869130E+00   3.833443E-01   3.318428E-01   1.487610E-01   1.806607E-01   1.840893E-01   1.315547E-01   6.484593E-02   2.408085E-02   2.086479E-02   2.904617E-02   3.649468E-02   1.429835E-01   3.471970E-01   2.905073E-01   5.050774E-02   7.225488E-02   3.194851E-02   4.695760E-02   2.090837E-02   2.358424E-02   3.681929E-02   4.325885E-01   4.329906E-02   7.329932E-02   2.287580E-01   1.829081E-01   8.024195E-01   2.486909E-01   1.470990E-01   9.413227E-02   7.210480E-02   3.760830E-02   3.361538E-02   9.748512E-02   1.150876E-01   1.237880E-01   1.915471E-01   8.934608E-02   7.780766E-02   1.281807E-01   2.268244E-01   2.971274E-01   9.622438E-02   5.704603E-02   9.220678E-02   1.799183E-01   1.722489E-01   1.583747E-01   2.413468E-01   1.101961E-01   1.730966E-01   1.637823E-01   1.238873E-01   5.046109E-02   1.173511E-01   1.173511E-01   1.812494E-01   1.355588E-01   1.355588E-01   7.604548E-02   5.360199E-02   5.360199E-02   2.647212E-02   2.647212E-02   2.647212E-02   4.977671E-02   4.977671E-02   4.977671E-02   1.397122E-01   1.397122E-01   1.397122E-01   1.397122E-01   1.397122E-01   5.547903E-02   5.547903E-02   5.547903E-02   5.547903E-02   5.547903E-02   4.810157E-02   4.810157E-02   4.810157E-02   4.810157E-02   4.810157E-02   4.810157E-02   4.810157E-02   4.228092E-02   4.228092E-02   4.228092E-02   4.228092E-02   4.228092E-02   4.228092E-02   4.228092E-02   4.228092E-02   4.228092E-02   4.228092E-02   6.945318E-02   6.945318E-02   6.945318E-02   6.945318E-02   6.945318E-02   6.945318E-02   6.945318E-02   6.945318E-02   6.945318E-02   2.463009E-01   2.463009E-01   2.463009E-01   2.463009E-01   2.463009E-01   2.463009E-01   2.463009E-01   1.674090E-01   1.674090E-01   1.674090E-01   1.674090E-01   1.674090E-01   1.039671E-01   1.039671E-01   1.039671E-01   1.039671E-01   4.838914E-02   4.838914E-02   4.838914E-02   1.265767E-01   1.265767E-01   1.186930E-01   1.186930E-01   2.616225E-01   2.616225E-01   4.492083E-01   4.321556E-01   5.731136E-01   5.731136E-01   4.067087E-01   1.635776E-01   6.988911E-02   1.456250E-01   2.213624E-01   1.241353E-01   6.207687E-02   1.657751E-01   8.612629E-02   6.652609E-02   1.126131E-01   5.387141E-02   2.822320E-02   2.285598E-02   2.236309E-02   3.996411E-02   1.322297E-02   1.758664E-02   4.209480E-02   1.022849E-02   4.743805E-02   6.587784E-02   1.117745E-01   6.757301E-02   3.939435E-02   5.762638E-02   4.078447E-02   1.214869E-01   1.873251E-01   8.557619E-02   1.634074E-01   9.686657E-02   5.769160E-02   3.724277E-02   4.818887E-02   1.425095E-02   3.715221E-02   6.455602E-02   1.154086E-01
   5.065304E-02   7.010754E-02   6.565124E-02   1.294994E-01   1.191714E-01   5.585113E-02   1.305503E-01   9.910223E-02   1.267470E-01   1.039275E-01   1.407238E-01   1.034445E-01   4.116745E-02   9.902084E-02   2.449949E-02   1.471607E-02   2.858360E-02   1.379605E-01   1.942319E-01   2.043850E-01   4.631100E-01   2.279541E-01   3.037686E-01   1.497435E-01   1.168824E-01   1.100527E-01   4.915752E-02   6.874280E-02   3.411803E-02   6.441495E-02   1.042660E-01   1.173354E-01   2.311259E-01   9.915093E-01   2.209599E+00   2.714495E-01   4.636697E-01   4.792042E-01   3.691488E-01   2.166664E-01   9.338721E-02   5.717216E-02   2.414722E-02   3.367933E-02   3.559903E-02   4.166771E-02   7.459494E-02   2.811274E-01   1.653421E-01   1.261086E-01   9.353679E-02   7.303060E-02   3.981685E-02   2.341996E-02   5.277976E-02   1.135310E-01   1.685328E-01   6.673034E-02   6.164665E-02   3.063045E-01   1.291045E-01   3.740251E-01   2.186845E-01   1.104826E-01   5.152681E-02   5.009595E-02   5.531334E-02   4.465662E-02   1.309564E-01   1.762593E-01   2.151737E-01   2.454690E-01   1.228539E-01   1.042066E-01   9.205937E-02   1.803547E-01   2.418856E-01   4.639266E-02   3.249495E-02   5.483442E-02   7.836443E-02   6.317449E-02   1.708034E-01   1.270816E-01   1.326378E-01   2.629932E-01   1.351581E-01   1.183737E-01   8.443156E-02   3.593041E-02   3.593041E-02   1.054899E-01   1.502078E-01   1.502078E-01   9.969416E-02   4.941512E-02   4.941512E-02   7.798642E-02   7.798642E-02   7.798642E-02   1.116699E-01   1.116699E-01   1.116699E-01   9.422994E-02   9.422994E-02   9.422994E-02   9.422994E-02   9.422994E-02   5.106800E-02   5.106800E-02   5.106800E-02   5.106800E-02   5.106800E-02   3.158198E-02   3.158198E-02   3.158198E-02   3.158198E-02   3.158198E-02   3.158198E-02   3.158198E-02   3.793654E-02   3.793654E-02   3.793654E-02   3.793654E-02   3.793654E-02   3.793654E-02   3.793654E-02   3.793654E-02   3.793654E-02   3.793654E-02   2.053893E-01   2.053893E-01   2.053893E-01   2.053893E-01   2.053893E-01   2.053893E-01   2.053893E-01   2.053893E-01   2.053893E-01   4.455000E-01   4.455000E-01   4.455000E-01   4.455000E-01   4.455000E-01   4.455000E-01   4.455000E-01   3.176346E-01   3.176346E-01   3.176346E-01   3.176346E-01   3.176346E-01   1.125950E-01   1.125950E-01   1.125950E-01   1.125950E-01   8.890997E-02   8.890997E-02   8.890997E-02   5.257131E-02   5.257131E-02   5.049127E-02   5.049127E-02   1.622265E-01   1.622265E-01   4.493351E-01   8.227785E-01   3.260839E-01   3.260839E-01   2.466329E-01   9.930736E-02   9.366020E-02   6.920873E-02   1.187975E-01   4.193360E-02   8.734561E-02   1.072181E-01   1.297289E-01   1.041934E-01   1.607988E-01   1.068930E-01   2.742640E-02   2.811648E-02   3.207840E-02   1.676537E-02   9.532832E-03   9.499177E-03   1.954587E-02   1.709156E-02   1.043157E-01   5.461161E-02   4.371602E-02   1.178191E-01   3.182147E-02   4.915030E-02   1.650901E-02   1.213048E-01   1.383476E-01   8.465364E-02   1.631434E-01   7.529453E-02   6.975346E-02   6.427397E-02   3.733619E-02   2.650243E-02   3.062618E-02   4.187414E-02   5.293743E-02
   3.893508E-02   6.346066E-02   4.927133E-02   9.895473E-02   8.502544E-02   9.971265E-02   1.095612E-01   1.120139E-01   3.452231E-02   7.184750E-02   7.429872E-02   4.837717E-02   2.236168E-02   4.964470E-02   1.170409E-02   2.184665E-02   3.561213E-02   9.557777E-02   1.278209E-01   2.614102E-01   8.252957E-01   4.007395E-01   2.879861E-01   1.423905E-01   1.529312E-01   1.404381E-01   6.557195E-02   8.010063E-02   3.646145E-02   9.945899E-02   1.279335E-01   9.168635E-02   2.808441E-01   7.976755E-01   1.371735E+00   3.843711E-01   2.327928E-01   2.398257E-01   1.049646E+00   1.282420E+00   2.194361E-01   8.429718E-02   3.865156E-02   3.763971E-02   3.909616E-02   8.381925E-02   6.806742E-02   1.666407E-01   7.881241E-02   9.384993E-02   9.765116E-02   1.009804E-01   5.029991E-02   3.270615E-02   9.844358E-02   1.273730E-01   1.578072E-01   4.270583E-02   6.766913E-02   1.314227E-01   9.584825E-02   1.364049E-01   8.603530E-02   5.557081E-02   2.779549E-02   6.081553E-02   5.003721E-02   5.854265E-02   1.158018E-01   1.845904E-01   1.637356E-01   2.186474E-01   1.122788E-01   1.239940E-01   6.934460E-02   1.409968E-01   2.139840E-01   7.094401E-02   3.409806E-02   2.862686E-02   8.505136E-02   2.180377E-01   1.672470E-01   2.255414E-01   3.653043E-01   3.078044E-01   7.906545E-02   1.259599E-01   5.505251E-02   4.251365E-02   4.251365E-02   6.393823E-02   1.126818E-01   1.126818E-01   2.065579E-01   1.379443E-01   1.379443E-01   7.395518E-02   7.395518E-02   7.395518E-02   1.281357E-01   1.281357E-01   1.281357E-01   4.715795E-02   4.715795E-02   4.715795E-02   4.715795E-02   4.715795E-02   5.406806E-02   5.406806E-02   5.406806E-02   5.406806E-02   5.406806E-02   3.720706E-02   3.720706E-02   3.720706E-02   3.720706E-02   3.720706E-02   3.720706E-02   3.720706E-02   5.930812E-02   5.930812E-02   5.930812E-02   5.930812E-02   5.930812E-02   5.930812E-02   5.930812E-02   5.930812E-02   5.930812E-02   5.930812E-02   2.788438E-01   2.788438E-01   2.788438E-01   2.788438E-01   2.788438E-01   2.788438E-01   2.788438E-01   2.788438E-01   2.788438E-01   3.393713E-01   3.393713E-01   3.393713E-01   3.393713E-01   3.393713E-01   3.393713E-01   3.393713E-01   4.976600E-01   4.976600E-01   4.976600E-01   4.976600E-01   4.976600E-01   8.402959E-02   8.402959E-02   8.402959E-02   8.402959E-02   1.114531E-01   1.114531E-01   1.114531E-01   2.681883E-02   2.681883E-02   7.957979E-02   7.957979E-02   1.048618E-01   1.048618E-01   4.154838E-01   5.630562E-01   3.057096E-01   3.057096E-01   3.208493E-01   1.189223E-01   1.171316E-01   3.396129E-02   6.041320E-02   2.150309E-02   3.793678E-02   5.643388E-02   1.242711E-01   1.405090E-01   1.938764E-01   3.622157E-02   4.165767E-02   3.837041E-02   2.124364E-02   2.844111E-02   1.905273E-02   1.151680E-02   2.335689E-02   2.179355E-02   7.137147E-02   3.971735E-02   4.200091E-02   5.034715E-02   1.779840E-02   4.620318E-02   1.592546E-02   5.516684E-02   4.415966E-02   7.145972E-02   1.441028E-01   1.293936E-01   8.720486E-02   1.121881E-01   2.676572E-02   2.810197E-02   3.137759E-02   5.228236E-02   5.454661E-02
   6.956057E-02   7.083552E-02   9.455387E-02   1.257536E-01   9.579559E-02   8.451381E-02   1.360979E-01   6.045520E-02   3.575187E-02   2.715070E-02   6.273670E-02   7.341532E-02   2.432661E-02   1.878735E-02   1.025514E-02   1.915165E-02   3.381753E-02   9.089193E-02   8.733881E-02   3.106478E-01   7.209505E-01   3.941572E-01   3.769186E-01   2.665263E-01   2.241021E-01   1.268671E-01   8.762395E-02   7.746888E-02   3.708204E-02   2.016236E-01   1.233843E-01   1.762676E-01   2.006451E-01   4.182576E-01   4.800638E-01   1.303221E-01   2.152376E-01   1.789928E-01   1.126733E+00   6.394562E-01   3.587584E-01   2.457980E-01   6.993467E-02   6.572144E-02   4.713963E-02   1.033847E-01   7.657599E-02   9.728276E-02   5.526265E-02   1.022452E-01   8.534923E-02   6.516128E-02   1.056287E-01   7.762215E-02   6.548524E-02   1.873384E-01   2.877522E-01   1.151056E-01   1.434314E-01   1.180551E-01   9.764005E-02   2.101246E-01   7.711745E-02   3.968630E-02   2.350076E-02   9.306014E-02   7.894833E-02   8.726629E-02   2.107091E-01   3.433366E-01   3.916402E-01   1.308208E-01   1.569885E-01   2.351732E-01   7.671633E-02   1.509134E-01   1.259216E-01   4.431979E-02   4.688192E-02   5.738556E-02   3.233302E-02   1.122337E-01   2.306739E-01   1.773954E-01   5.842399E-01   4.670587E-01   2.210620E-01   1.163016E-01   3.284674E-02   4.263649E-02   4.263649E-02   5.086799E-02   2.555518E-01   2.555518E-01   2.180294E-01   3.098457E-01   3.098457E-01   7.911450E-02   7.911450E-02   7.911450E-02   1.442667E-01   1.442667E-01   1.442667E-01   5.303184E-02   5.303184E-02   5.303184E-02   5.303184E-02   5.303184E-02   5.648017E-02   5.648017E-02   5.648017E-02   5.648017E-02   5.648017E-02   2.468330E-02   2.468330E-02   2.468330E-02   2.468330E-02   2.468330E-02   2.468330E-02   2.468330E-02   4.623514E-02   4.623514E-02   4.623514E-02   4.623514E-02   4.623514E-02   4.623514E-02   4.623514E-02   4.623514E-02   4.623514E-02   4.623514E-02   2.241457E-01   2.241457E-01   2.241457E-01   2.241457E-01   2.241457E-01   2.241457E-01   2.241457E-01   2.241457E-01   2.241457E-01   3.929098E-01   3.929098E-01   3.929098E-01   3.929098E-01   3.929098E-01   3.929098E-01   3.929098E-01   1.191822E-01   1.191822E-01   1.191822E-01   1.191822E-01   1.191822E-01   6.791588E-02   6.791588E-02   6.791588E-02   6.791588E-02   5.184241E-02   5.184241E-02   5.184241E-02   2.115589E-02   2.115589E-02   4.881375E-02   4.881375E-02   3.195254E-02   3.195254E-02   3.699918E-01   2.466354E-01   3.387760E-01   3.387760E-01   3.333645E-01   1.687944E-01   5.895211E-02   4.337143E-02   4.084074E-02   2.947016E-02   1.937374E-02   4.728992E-02   5.978905E-02   6.354065E-02   7.763931E-02   2.432040E-02   4.642503E-02   7.525770E-02   2.988769E-02   6.214182E-02   1.750610E-02   2.020412E-02   4.091225E-02   1.608909E-02   6.174478E-02   3.888303E-02   4.219289E-02   4.505872E-02   4.337020E-02   3.963243E-02   2.537214E-02   4.229777E-02   8.408787E-02   6.459010E-02   2.751243E-01   1.367568E-01   7.923735E-02   1.544785E-01   3.878674E-02   6.274403E-02   2.294863E-02   8.534092E-02   5.997916E-02