# LPF package for  MODFLOW-2005, generated by Flopy.
        53    -1E+30         0  
         1
         0
   0.000000E+00
         0
         0
INTERNAL               1 (207E15.6) -1 #hk layer 1                    
   1.365847E+02   2.404346E+01   1.720917E+01   4.116446E+00   5.986622E+00   1.659125E+01   2.504772E+01   3.998453E+01   8.981305E+01   2.009979E+02   1.914798E+02   1.414735E+02   9.703863E+01   3.507715E+02   2.835994E+02   1.035000E+02   7.645559E+01   1.873230E+02   9.898257E+01   1.466146E+02   1.619786E+02   1.501698E+02   6.180427E+01   1.541762E+01   1.014719E+01   1.250410E+01   3.749994E+01   5.814199E+00   4.980481E+00   6.710915E+00   3.233597E+01   4.771707E+01   1.112186E+02   5.104444E+01   1.203959E+02   6.391352E+01   6.548697E+01   1.376104E+02   5.587400E+01   3.931900E+01   3.669889E+01   3.474856E+01   4.121249E+01   1.433609E+01   2.478638E+01   1.171779E+01   2.182115E+01   9.084370E+01   2.661447E+01   7.660678E+01   6.613270E+01   9.067406E+01   3.224931E+02   2.260963E+02   1.539407E+02   6.733215E+01   3.924754E+01   3.473767E+01   1.113491E+02   6.376641E+01   6.657787E+01   3.835535E+01   3.261938E+01   2.559587E+01   2.410256E+01   2.118170E+01   4.558174E+01   3.586713E+01   1.268472E+01   2.525667E+01   7.929732E+01   8.784285E+01   9.185818E+01   9.530872E+01   9.435697E+01   6.018990E+01   4.551338E+01   1.495880E+02   2.373905E+02   1.120470E+02   1.186602E+02   6.532220E+01   8.978329E+01   9.505019E+01   2.537305E+01   8.700573E+01   1.952948E+02   2.667388E+02   2.428810E+02   3.242136E+02   3.242136E+02   5.150127E+01   4.097890E+01   4.097890E+01   1.360125E+01   9.432364E+00   9.432364E+00   2.469449E+01   2.469449E+01   2.469449E+01   1.412590E+02   1.412590E+02   1.412590E+02   2.096127E+02   2.096127E+02   2.096127E+02   2.096127E+02   2.096127E+02   2.183240E+02   2.183240E+02   2.183240E+02   2.183240E+02   2.183240E+02   8.544137E+01   8.544137E+01   8.544137E+01   8.544137E+01   8.544137E+01   8.544137E+01   8.544137E+01   6.611903E+01   6.611903E+01   6.611903E+01   6.611903E+01   6.611903E+01   6.611903E+01   6.611903E+01   6.611903E+01   6.611903E+01   6.611903E+01   5.238903E+01   5.238903E+01   5.238903E+01   5.238903E+01   5.238903E+01   5.238903E+01   5.238903E+01   5.238903E+01   5.238903E+01   1.923255E+02   1.923255E+02   1.923255E+02   1.923255E+02   1.923255E+02   1.923255E+02   1.923255E+02   2.172314E+02   2.172314E+02   2.172314E+02   2.172314E+02   2.172314E+02   5.920255E+01   5.920255E+01   5.920255E+01   5.920255E+01   5.027017E+01   5.027017E+01   5.027017E+01   2.977015E+01   2.977015E+01   4.109281E+01   4.109281E+01   1.902815E+01   1.902815E+01   3.965806E+01   1.247818E+02   9.007327E+01   9.007327E+01   9.336297E+01   6.761614E+01   1.332236E+02   3.434963E+01   5.891973E+01   7.809990E+01   1.737850E+02   7.608447E+01   9.693378E+01   1.459917E+02   3.968472E+01   1.072950E+02   1.538086E+02   5.391578E+01   4.737067E+01   1.222151E+02   2.307926E+02   2.278829E+02   2.174999E+02   2.996189E+02   2.540236E+02   4.811769E+01   5.410226E+01   3.620976E+01   5.272015E+01   2.509281E+02   1.243372E+02   9.272642E+01   6.099366E+01   6.485342E+01   2.035296E+01   7.711713E+01   6.490810E+01   4.701089E+01   2.920939E+01   3.777420E+01   9.547458E+01   2.739733E+01   5.541091E+01
   1.687304E+02   1.989804E+01   5.702168E+00   7.017173E+00   5.373538E+00   1.568650E+01   2.481678E+01   1.888622E+01   5.541036E+01   1.129191E+02   2.137803E+02   1.153288E+02   1.016022E+02   8.577406E+01   8.406837E+01   1.035746E+02   5.693364E+01   1.775629E+02   7.900751E+01   8.329418E+01   9.298419E+01   6.862431E+01   4.711940E+01   1.846523E+01   1.422730E+01   2.372603E+01   2.336742E+01   7.288852E+00   5.989185E+00   4.265438E+00   4.359249E+01   2.871295E+01   6.363005E+01   4.806003E+01   7.116958E+01   4.514036E+01   7.516103E+01   1.147433E+02   4.583736E+01   3.898851E+01   4.778133E+01   5.001303E+01   2.155312E+01   2.705843E+01   2.875359E+01   9.113457E+00   2.127222E+01   2.958737E+01   3.510807E+01   6.360259E+01   1.485362E+02   2.301635E+02   2.232932E+02   1.729235E+02   1.071036E+02   4.645786E+01   4.984371E+01   2.643543E+01   7.159250E+01   1.347547E+02   9.473232E+01   2.154932E+01   1.561997E+01   2.065153E+01   3.269499E+01   1.461815E+01   5.772883E+01   4.021326E+01   1.588746E+01   1.773840E+01   7.583115E+01   4.826352E+01   9.621000E+01   5.240630E+01   3.039572E+01   3.609067E+01   4.515357E+01   1.301281E+02   1.746197E+02   8.490511E+01   1.479505E+02   3.800755E+01   5.346801E+01   4.803793E+01   1.882712E+01   9.410124E+01   1.185397E+02   1.457181E+02   1.671072E+02   2.388442E+02   2.388442E+02   7.733844E+01   9.735133E+01   9.735133E+01   1.336623E+01   1.268093E+01   1.268093E+01   2.489647E+01   2.489647E+01   2.489647E+01   1.800068E+02   1.800068E+02   1.800068E+02   1.161383E+02   1.161383E+02   1.161383E+02   1.161383E+02   1.161383E+02   2.111157E+02   2.111157E+02   2.111157E+02   2.111157E+02   2.111157E+02   1.068882E+02   1.068882E+02   1.068882E+02   1.068882E+02   1.068882E+02   1.068882E+02   1.068882E+02   6.604769E+01   6.604769E+01   6.604769E+01   6.604769E+01   6.604769E+01   6.604769E+01   6.604769E+01   6.604769E+01   6.604769E+01   6.604769E+01   1.210279E+02   1.210279E+02   1.210279E+02   1.210279E+02   1.210279E+02   1.210279E+02   1.210279E+02   1.210279E+02   1.210279E+02   3.504391E+02   3.504391E+02   3.504391E+02   3.504391E+02   3.504391E+02   3.504391E+02   3.504391E+02   1.705497E+02   1.705497E+02   1.705497E+02   1.705497E+02   1.705497E+02   4.987347E+01   4.987347E+01   4.987347E+01   4.987347E+01   8.192059E+01   8.192059E+01   8.192059E+01   2.480537E+01   2.480537E+01   3.637068E+01   3.637068E+01   4.006941E+01   4.006941E+01   3.813118E+01   8.988443E+01   9.299837E+01   9.299837E+01   1.015631E+02   8.220631E+01   2.520858E+02   4.208001E+01   4.716491E+01   7.938522E+01   1.526841E+02   1.079216E+02   1.328143E+02   1.333896E+02   6.615799E+01   7.454225E+01   7.221695E+01   3.920566E+01   7.473812E+01   1.577368E+02   1.778824E+02   2.494867E+02   5.502304E+02   3.056886E+02   2.010425E+02   4.157150E+01   5.421753E+01   9.944292E+01   1.036775E+02   3.850549E+02   3.013040E+02   1.062723E+02   6.316834E+01   6.073040E+01   2.774718E+01   6.497038E+01   3.614297E+01   2.113795E+01   1.900535E+01   4.422709E+01   1.597232E+02   6.760403E+01   8.668851E+01
   1.189702E+02   2.164589E+01   5.299464E+00   1.309617E+01   7.747358E+00   2.196922E+01   2.372938E+01   2.373134E+01   3.894959E+01   9.569995E+01   1.631708E+02   1.000600E+02   1.012515E+02   8.136312E+01   5.818483E+01   1.291236E+02   9.312853E+01   1.379923E+02   1.362945E+02   8.032455E+01   1.042748E+02   5.182159E+01   4.631540E+01   1.801573E+01   1.292659E+01   1.459608E+01   1.518658E+01   1.250695E+01   2.549197E+01   1.196460E+01   3.735297E+01   2.808247E+01   3.873104E+01   3.085621E+01   6.428857E+01   5.199640E+01   8.715185E+01   1.068005E+02   6.508564E+01   4.990895E+01   7.030866E+01   6.783706E+01   2.635927E+01   4.118718E+01   4.857755E+01   3.365800E+01   2.427700E+01   8.268174E+01   3.804953E+01   5.875811E+01   1.006309E+02   1.385817E+02   2.535788E+02   3.419189E+02   1.796975E+02   1.073074E+02   9.144641E+01   5.205989E+01   3.838900E+01   1.074126E+02   1.150982E+02   2.900740E+01   3.739413E+01   3.030115E+01   2.167758E+01   1.564863E+01   4.526109E+01   2.046149E+01   1.515713E+01   3.675518E+01   6.406155E+01   4.649184E+01   7.426787E+01   3.532618E+01   1.115018E+01   1.135557E+01   4.622320E+01   1.003944E+02   2.037872E+02   9.751431E+01   8.783154E+01   5.655808E+01   4.108137E+01   3.910427E+01   1.750225E+01   3.742432E+01   6.180979E+01   9.823932E+01   7.997150E+01   1.949802E+02   1.949802E+02   1.291941E+02   3.158183E+01   3.158183E+01   1.259026E+01   2.545260E+01   2.545260E+01   8.447197E+01   8.447197E+01   8.447197E+01   1.247340E+02   1.247340E+02   1.247340E+02   9.388496E+01   9.388496E+01   9.388496E+01   9.388496E+01   9.388496E+01   1.852839E+02   1.852839E+02   1.852839E+02   1.852839E+02   1.852839E+02   2.379842E+02   2.379842E+02   2.379842E+02   2.379842E+02   2.379842E+02   2.379842E+02   2.379842E+02   8.803982E+01   8.803982E+01   8.803982E+01   8.803982E+01   8.803982E+01   8.803982E+01   8.803982E+01   8.803982E+01   8.803982E+01   8.803982E+01   9.867912E+01   9.867912E+01   9.867912E+01   9.867912E+01   9.867912E+01   9.867912E+01   9.867912E+01   9.867912E+01   9.867912E+01   2.403074E+02   2.403074E+02   2.403074E+02   2.403074E+02   2.403074E+02   2.403074E+02   2.403074E+02   9.606082E+01   9.606082E+01   9.606082E+01   9.606082E+01   9.606082E+01   3.659683E+01   3.659683E+01   3.659683E+01   3.659683E+01   6.821999E+01   6.821999E+01   6.821999E+01   2.334628E+01   2.334628E+01   4.207204E+01   4.207204E+01   1.027186E+02   1.027186E+02   6.509591E+01   3.492443E+02   1.083125E+02   1.083125E+02   1.640804E+02   1.150723E+02   2.644766E+02   2.983367E+01   1.563152E+01   5.693421E+01   9.026674E+01   9.063107E+01   1.280460E+02   1.869083E+02   1.486635E+02   8.283099E+01   7.749519E+01   6.456141E+01   4.423359E+01   1.754689E+02   2.032854E+02   2.912899E+02   6.644033E+02   4.297999E+02   2.450067E+02   1.014446E+02   6.013094E+01   1.693932E+02   3.705444E+02   6.682093E+02   4.223830E+02   2.094046E+02   1.154511E+02   1.071858E+02   5.041570E+01   4.241038E+01   3.628876E+01   2.270486E+01   1.093989E+01   6.393744E+01   1.542287E+02   5.123722E+01   8.680815E+01
   7.757080E+01   2.689042E+01   9.634369E+00   1.542281E+01   9.387448E+00   1.571869E+01   1.176436E+01   1.548101E+01   2.074529E+01   1.839897E+01   3.495184E+01   6.262001E+01   1.028038E+02   4.942510E+01   3.199116E+01   1.180527E+02   5.245187E+01   1.427947E+02   7.054482E+01   5.176542E+01   7.752109E+01   3.755139E+01   6.185212E+01   1.408122E+01   2.769911E+01   1.791717E+01   2.263307E+01   1.818489E+01   1.295450E+01   1.137569E+01   2.208180E+01   1.897953E+01   2.120310E+01   5.886149E+01   4.571722E+01   6.917090E+01   1.984127E+02   9.664216E+01   7.686904E+01   8.405321E+01   8.483881E+01   1.399377E+02   4.431778E+01   3.758492E+01   4.791511E+01   3.392452E+01   4.241645E+01   6.597314E+01   5.195307E+01   1.667593E+02   9.022213E+01   1.797462E+02   4.914617E+02   2.321234E+02   1.392034E+02   1.911486E+02   8.205328E+01   4.765023E+01   5.537567E+01   1.459612E+02   9.763834E+01   4.281107E+01   3.085293E+01   2.809009E+01   3.336789E+01   7.246424E+01   5.349709E+01   3.235218E+01   1.498574E+01   3.917338E+01   5.224746E+01   4.834695E+01   3.044600E+01   1.299608E+01   1.522981E+01   7.614083E+00   4.286006E+01   6.196567E+01   1.173423E+02   1.240275E+02   8.289574E+01   3.887437E+01   5.623828E+01   4.446923E+01   2.340532E+01   2.210868E+01   7.258682E+01   5.774425E+01   7.709050E+01   9.073592E+01   9.073592E+01   8.385740E+01   9.386921E+01   9.386921E+01   8.055968E+01   3.651029E+01   3.651029E+01   9.410107E+01   9.410107E+01   9.410107E+01   1.544483E+02   1.544483E+02   1.544483E+02   1.788479E+02   1.788479E+02   1.788479E+02   1.788479E+02   1.788479E+02   2.263278E+02   2.263278E+02   2.263278E+02   2.263278E+02   2.263278E+02   1.811381E+02   1.811381E+02   1.811381E+02   1.811381E+02   1.811381E+02   1.811381E+02   1.811381E+02   1.446200E+02   1.446200E+02   1.446200E+02   1.446200E+02   1.446200E+02   1.446200E+02   1.446200E+02   1.446200E+02   1.446200E+02   1.446200E+02   1.418542E+02   1.418542E+02   1.418542E+02   1.418542E+02   1.418542E+02   1.418542E+02   1.418542E+02   1.418542E+02   1.418542E+02   1.245378E+02   1.245378E+02   1.245378E+02   1.245378E+02   1.245378E+02   1.245378E+02   1.245378E+02   1.550781E+02   1.550781E+02   1.550781E+02   1.550781E+02   1.550781E+02   3.827967E+01   3.827967E+01   3.827967E+01   3.827967E+01   3.673939E+01   3.673939E+01   3.673939E+01   2.072068E+01   2.072068E+01   2.786031E+01   2.786031E+01   4.559044E+01   4.559044E+01   7.774310E+01   2.877397E+02   1.571859E+02   1.571859E+02   2.907079E+02   1.845873E+02   5.921768E+01   5.544017E+01   9.603310E+00   1.690046E+01   5.642396E+01   8.241394E+01   1.196119E+02   1.719404E+02   1.264099E+02   1.032308E+02   7.402876E+01   2.119084E+01   5.256296E+01   1.603050E+02   2.300668E+02   1.864925E+02   6.276204E+02   3.925947E+02   1.663892E+02   9.924075E+01   1.070086E+02   2.840760E+02   6.688457E+02   8.919244E+02   5.502514E+02   2.540699E+02   9.903522E+01   4.196241E+01   3.767853E+01   3.533458E+01   1.951753E+01   9.100396E+00   1.504611E+01   4.786755E+01   7.685873E+01   4.209948E+01   5.235004E+01
   4.978467E+01   3.689957E+01   1.396945E+01   4.213638E+01   1.355972E+01   1.547044E+01   1.217856E+01   3.233696E+01   1.483359E+01   7.224218E+00   2.132415E+01   7.010823E+01   4.286229E+01   5.849755E+01   2.219149E+01   5.610827E+01   6.958726E+01   1.360170E+02   3.399655E+01   3.292389E+01   4.843978E+01   4.717556E+01   4.591979E+01   2.022792E+01   4.493282E+01   2.183699E+01   2.434333E+01   2.020594E+01   2.574829E+01   2.161361E+01   2.388522E+01   1.580405E+01   2.244969E+01   5.273774E+01   7.060370E+01   4.430492E+01   1.420771E+02   9.716687E+01   7.647529E+01   1.003171E+02   6.149371E+01   1.354762E+02   3.049146E+01   4.321745E+01   2.589819E+01   4.896967E+01   4.942870E+01   9.827107E+01   6.636284E+01   9.773563E+01   2.438699E+02   4.656818E+02   7.078540E+02   4.055280E+02   1.704566E+02   2.356303E+02   1.325113E+02   6.627442E+01   7.097416E+01   8.150749E+01   1.290376E+02   3.188778E+01   4.718896E+01   1.026441E+02   1.020563E+02   6.927637E+01   4.773500E+01   4.799732E+01   3.052471E+01   9.331369E+01   9.749232E+01   4.558570E+01   2.114693E+01   9.551892E+00   2.755471E+01   1.509754E+01   3.530416E+01   5.573309E+01   7.792041E+01   7.376769E+01   8.526056E+01   5.446157E+01   3.387483E+01   3.301870E+01   9.094331E+00   3.039448E+01   4.079275E+01   2.497009E+01   1.262268E+02   9.626495E+01   9.626495E+01   3.117951E+01   1.420135E+02   1.420135E+02   1.018193E+02   6.895907E+01   6.895907E+01   8.276993E+01   8.276993E+01   8.276993E+01   1.623764E+02   1.623764E+02   1.623764E+02   2.888747E+02   2.888747E+02   2.888747E+02   2.888747E+02   2.888747E+02   2.831438E+02   2.831438E+02   2.831438E+02   2.831438E+02   2.831438E+02   1.750067E+02   1.750067E+02   1.750067E+02   1.750067E+02   1.750067E+02   1.750067E+02   1.750067E+02   1.409702E+02   1.409702E+02   1.409702E+02   1.409702E+02   1.409702E+02   1.409702E+02   1.409702E+02   1.409702E+02   1.409702E+02   1.409702E+02   1.939524E+02   1.939524E+02   1.939524E+02   1.939524E+02   1.939524E+02   1.939524E+02   1.939524E+02   1.939524E+02   1.939524E+02   1.544928E+02   1.544928E+02   1.544928E+02   1.544928E+02   1.544928E+02   1.544928E+02   1.544928E+02   1.549630E+02   1.549630E+02   1.549630E+02   1.549630E+02   1.549630E+02   5.551537E+01   5.551537E+01   5.551537E+01   5.551537E+01   2.206373E+01   2.206373E+01   2.206373E+01   1.956758E+01   1.956758E+01   5.243711E+01   5.243711E+01   2.758538E+01   2.758538E+01   9.905998E+01   1.179168E+02   9.652545E+01   9.652545E+01   1.432450E+02   5.601145E+01   3.662340E+01   4.693150E+01   2.884171E+01   2.397611E+01   3.684477E+01   5.248872E+01   4.296530E+02   2.555616E+02   2.563862E+02   1.545264E+02   6.273988E+01   2.018616E+01   2.815907E+01   2.122952E+02   1.248529E+02   2.887127E+02   5.442952E+02   2.801369E+02   1.154767E+02   1.023190E+02   1.094566E+02   3.558426E+02   8.372338E+02   9.738524E+02   6.385698E+02   4.457096E+02   1.111394E+02   5.102250E+01   4.066352E+01   2.892380E+01   3.538439E+01   1.119217E+01   9.048973E+00   6.216136E+01   6.931675E+01   3.136185E+01   2.028788E+01
   5.266929E+01   5.436028E+01   3.315435E+01   6.168356E+01   3.691059E+01   2.046973E+01   2.471821E+01   2.690084E+01   7.509961E+00   4.348061E+00   2.336807E+01   6.659218E+01   2.731718E+01   5.934507E+01   3.456330E+01   3.953009E+01   4.652674E+01   4.546533E+01   1.758035E+01   3.677568E+01   7.981001E+01   3.755114E+01   4.585156E+01   3.965918E+01   3.887811E+01   1.592447E+01   2.393557E+01   1.298020E+01   1.708674E+01   1.482214E+01   2.590639E+01   2.600436E+01   3.054258E+01   3.949791E+01   1.294582E+02   4.691918E+01   1.062686E+02   4.156656E+01   8.126768E+01   9.191002E+01   4.306565E+01   1.015381E+02   3.576124E+01   1.392873E+01   1.444986E+01   2.361639E+01   5.684622E+01   5.652120E+01   4.804167E+01   1.135646E+02   4.299437E+02   4.288787E+02   3.694388E+02   4.055155E+02   1.152269E+02   2.128373E+02   1.815273E+02   1.744599E+02   1.771063E+02   6.413638E+01   1.109332E+02   4.457372E+01   5.196550E+01   1.112654E+02   6.490846E+01   3.900356E+01   4.372894E+01   3.797176E+01   2.338288E+01   1.109640E+02   6.998040E+01   6.295901E+01   7.302822E+01   1.945749E+01   2.752539E+01   6.022428E+01   3.683741E+01   7.940337E+01   6.173203E+01   1.067843E+02   6.847288E+01   6.845729E+01   3.586261E+01   4.727393E+01   2.660945E+01   5.123055E+01   7.087125E+01   6.853564E+01   8.811895E+01   1.270534E+02   1.270534E+02   3.085800E+01   1.012831E+02   1.012831E+02   1.123269E+02   3.004804E+01   3.004804E+01   9.219408E+01   9.219408E+01   9.219408E+01   1.677752E+02   1.677752E+02   1.677752E+02   2.835738E+02   2.835738E+02   2.835738E+02   2.835738E+02   2.835738E+02   1.259874E+02   1.259874E+02   1.259874E+02   1.259874E+02   1.259874E+02   1.438198E+02   1.438198E+02   1.438198E+02   1.438198E+02   1.438198E+02   1.438198E+02   1.438198E+02   1.781003E+02   1.781003E+02   1.781003E+02   1.781003E+02   1.781003E+02   1.781003E+02   1.781003E+02   1.781003E+02   1.781003E+02   1.781003E+02   2.712122E+02   2.712122E+02   2.712122E+02   2.712122E+02   2.712122E+02   2.712122E+02   2.712122E+02   2.712122E+02   2.712122E+02   1.457645E+02   1.457645E+02   1.457645E+02   1.457645E+02   1.457645E+02   1.457645E+02   1.457645E+02   2.846923E+02   2.846923E+02   2.846923E+02   2.846923E+02   2.846923E+02   4.953716E+01   4.953716E+01   4.953716E+01   4.953716E+01   3.061379E+01   3.061379E+01   3.061379E+01   2.551532E+01   2.551532E+01   5.506143E+01   5.506143E+01   3.172880E+01   3.172880E+01   9.281216E+01   1.002374E+02   6.545095E+01   6.545095E+01   6.037322E+01   6.391035E+01   8.002197E+01   3.494644E+01   4.638779E+01   3.752188E+01   4.964108E+01   5.091220E+01   1.506771E+02   1.104328E+02   1.073688E+02   1.788758E+02   7.965689E+01   3.805225E+01   3.971572E+01   4.338888E+01   1.150840E+02   1.901153E+02   3.914138E+02   3.404919E+02   6.366423E+01   7.574978E+01   1.560122E+02   2.560163E+02   6.111706E+02   4.273787E+02   6.603569E+02   2.315027E+02   1.379777E+02   4.369582E+01   3.352705E+01   1.501875E+01   1.643717E+01   1.729206E+01   2.435612E+01   3.916620E+01   3.982109E+01   1.767260E+01   2.654517E+01
   4.109469E+01   5.541057E+01   8.798232E+01   1.574563E+02   1.030763E+02   3.931661E+01   6.886209E+01   2.384561E+01   1.093901E+01   1.806817E+01   2.057870E+01   6.645604E+01   5.612859E+01   5.156707E+01   4.473518E+01   7.493004E+01   3.387093E+01   5.110056E+01   2.005507E+01   3.125260E+01   5.269170E+01   3.903431E+01   3.983519E+01   2.737229E+01   2.634594E+01   2.498552E+01   1.669452E+01   1.873635E+01   1.955925E+01   2.139001E+01   4.126229E+01   2.675939E+01   3.472350E+01   3.610141E+01   9.904012E+01   6.242875E+01   5.363721E+01   2.632130E+01   1.041373E+02   5.071926E+01   7.312385E+01   3.531763E+01   3.500776E+01   1.243800E+01   9.747724E+00   1.219439E+01   2.252041E+01   6.061559E+01   7.305252E+01   9.289574E+01   7.953305E+02   6.486783E+02   4.309373E+02   2.189248E+02   7.346962E+01   8.964320E+01   1.208282E+02   1.182143E+02   3.832584E+02   1.581015E+02   2.789186E+02   1.201670E+02   4.122247E+01   5.435784E+01   2.404143E+01   4.297575E+01   2.447328E+01   2.472461E+01   3.578063E+01   7.738162E+01   7.295802E+01   5.521244E+01   5.762485E+01   2.006723E+01   3.959767E+01   9.282695E+01   4.799965E+01   5.405754E+01   5.685826E+01   6.320481E+01   5.485872E+01   4.967710E+01   3.745415E+01   8.914065E+01   2.112268E+01   5.604010E+01   1.301883E+02   1.122209E+02   1.301484E+02   9.076271E+01   9.076271E+01   3.602163E+01   4.249649E+01   4.249649E+01   1.151711E+02   5.512716E+01   5.512716E+01   5.645261E+01   5.645261E+01   5.645261E+01   8.061014E+01   8.061014E+01   8.061014E+01   5.928393E+01   5.928393E+01   5.928393E+01   5.928393E+01   5.928393E+01   5.614721E+01   5.614721E+01   5.614721E+01   5.614721E+01   5.614721E+01   3.216416E+01   3.216416E+01   3.216416E+01   3.216416E+01   3.216416E+01   3.216416E+01   3.216416E+01   1.058018E+02   1.058018E+02   1.058018E+02   1.058018E+02   1.058018E+02   1.058018E+02   1.058018E+02   1.058018E+02   1.058018E+02   1.058018E+02   1.888441E+02   1.888441E+02   1.888441E+02   1.888441E+02   1.888441E+02   1.888441E+02   1.888441E+02   1.888441E+02   1.888441E+02   1.362234E+02   1.362234E+02   1.362234E+02   1.362234E+02   1.362234E+02   1.362234E+02   1.362234E+02   2.014583E+02   2.014583E+02   2.014583E+02   2.014583E+02   2.014583E+02   3.828772E+01   3.828772E+01   3.828772E+01   3.828772E+01   2.858817E+01   2.858817E+01   2.858817E+01   2.541412E+01   2.541412E+01   2.628751E+01   2.628751E+01   1.673337E+01   1.673337E+01   7.973882E+01   9.888364E+01   5.972908E+01   5.972908E+01   6.161149E+01   5.694608E+01   5.180970E+01   3.382501E+01   3.059974E+01   4.663990E+01   7.391540E+01   1.126227E+02   1.378073E+02   1.269656E+02   5.487619E+01   1.339592E+02   1.017448E+02   6.235883E+01   4.742854E+01   1.047895E+02   7.889156E+01   1.094670E+02   1.275828E+02   1.458560E+02   9.324809E+01   3.829185E+01   2.488607E+02   5.376471E+02   5.404460E+02   2.062182E+02   2.086234E+02   1.281668E+02   1.513462E+02   5.180538E+01   2.257869E+01   1.451092E+01   1.216563E+01   4.654793E+01   2.879297E+01   5.308877E+01   6.262292E+01   5.528021E+01   5.679988E+01
   3.878700E+01   4.709863E+01   5.831078E+01   1.705717E+02   2.117643E+02   4.830798E+01   1.054797E+02   3.427086E+01   1.668720E+01   2.712094E+01   3.788141E+01   7.504297E+01   1.287698E+02   4.497462E+01   8.082948E+01   5.022817E+01   6.180466E+01   1.591739E+01   1.021361E+01   2.336390E+01   2.994468E+01   3.901171E+01   4.438446E+01   3.294809E+01   2.277879E+01   2.550293E+01   1.622361E+01   2.322919E+01   1.858454E+01   4.787376E+01   1.069952E+02   3.797338E+01   2.408655E+01   2.342144E+01   4.257920E+01   7.537449E+01   7.032226E+01   4.423637E+01   1.638413E+02   4.206650E+01   1.564276E+01   3.365836E+01   3.975105E+01   3.472282E+01   1.342369E+01   1.339110E+01   1.055639E+02   5.562560E+01   7.863946E+01   1.203420E+02   7.246983E+02   7.003813E+02   2.806188E+02   1.199663E+02   6.819004E+01   1.416534E+02   9.205678E+01   1.170177E+02   3.841203E+02   5.273051E+01   2.625742E+02   1.320996E+02   1.211453E+02   4.330236E+01   3.886230E+01   3.356727E+01   9.339176E+00   3.229640E+01   1.122682E+02   1.089601E+02   6.048982E+01   8.631682E+01   4.349471E+01   3.407980E+01   6.942221E+01   1.063231E+02   4.359717E+01   4.721031E+01   7.368417E+01   8.140741E+01   6.646172E+01   6.526598E+01   3.741173E+01   5.941200E+01   1.676683E+01   2.659947E+01   1.976725E+02   1.842896E+02   1.064751E+02   2.678754E+01   2.678754E+01   4.528687E+01   4.449246E+01   4.449246E+01   1.198123E+02   4.622729E+01   4.622729E+01   2.563895E+01   2.563895E+01   2.563895E+01   7.848384E+01   7.848384E+01   7.848384E+01   2.155609E+02   2.155609E+02   2.155609E+02   2.155609E+02   2.155609E+02   1.018646E+02   1.018646E+02   1.018646E+02   1.018646E+02   1.018646E+02   5.705292E+01   5.705292E+01   5.705292E+01   5.705292E+01   5.705292E+01   5.705292E+01   5.705292E+01   1.400827E+02   1.400827E+02   1.400827E+02   1.400827E+02   1.400827E+02   1.400827E+02   1.400827E+02   1.400827E+02   1.400827E+02   1.400827E+02   2.069090E+02   2.069090E+02   2.069090E+02   2.069090E+02   2.069090E+02   2.069090E+02   2.069090E+02   2.069090E+02   2.069090E+02   8.170475E+01   8.170475E+01   8.170475E+01   8.170475E+01   8.170475E+01   8.170475E+01   8.170475E+01   9.832404E+01   9.832404E+01   9.832404E+01   9.832404E+01   9.832404E+01   3.113491E+01   3.113491E+01   3.113491E+01   3.113491E+01   2.692612E+01   2.692612E+01   2.692612E+01   1.160776E+01   1.160776E+01   2.236773E+01   2.236773E+01   1.531036E+01   1.531036E+01   4.929485E+01   4.412711E+01   3.706057E+01   3.706057E+01   6.832096E+01   5.052227E+01   3.990207E+01   2.015887E+01   2.957721E+01   1.915020E+01   9.948170E+01   2.014811E+02   8.277559E+01   1.724001E+02   4.115936E+01   9.908213E+01   3.949737E+01   5.372910E+01   8.638941E+01   1.456076E+02   4.947796E+01   1.793502E+02   4.175016E+01   1.011694E+02   1.272314E+02   6.917685E+01   1.101449E+02   2.732425E+02   2.813074E+02   2.874461E+02   3.136832E+02   9.727753E+01   1.785040E+02   4.865919E+01   1.710883E+01   4.101986E+01   1.583224E+01   3.539454E+01   4.873793E+01   6.987551E+01   1.025321E+02   4.277477E+01   6.554836E+01
   3.877399E+01   5.656522E+01   7.113078E+01   1.036373E+02   1.825499E+02   6.362518E+01   4.137732E+01   4.867629E+01   1.481327E+01   4.288385E+01   4.869199E+01   3.787109E+01   6.545239E+01   5.123416E+01   1.049864E+02   3.805692E+01   5.169634E+01   1.019471E+01   8.710499E+00   1.418963E+01   1.853342E+01   2.928537E+01   9.771362E+01   2.830816E+01   3.023059E+01   2.319944E+01   2.881651E+01   1.500996E+01   1.620655E+01   9.071623E+01   1.552809E+02   6.328064E+01   1.001401E+01   1.894598E+01   3.397121E+01   2.663025E+01   4.457484E+01   1.269049E+02   1.133578E+02   5.307683E+01   1.942747E+01   3.332198E+01   7.419235E+01   6.068633E+01   2.870275E+01   1.352956E+01   7.185312E+01   1.640512E+02   1.172920E+02   2.118384E+02   5.417995E+02   2.657155E+02   1.353512E+02   1.923921E+02   5.276332E+01   7.117752E+01   1.174744E+02   1.396532E+02   1.503255E+02   8.846574E+01   3.667656E+02   8.535061E+01   1.501593E+02   7.555439E+01   4.516705E+01   4.222768E+01   2.150354E+01   7.856251E+01   1.261525E+02   1.597695E+02   1.105626E+02   7.112022E+01   6.282859E+01   4.585069E+01   7.462755E+01   9.601583E+01   2.456426E+01   1.371798E+02   1.178378E+02   8.933377E+01   5.597726E+01   3.778032E+01   2.771330E+01   1.588382E+01   2.045853E+01   2.232197E+01   7.359968E+01   7.955436E+01   5.910455E+01   8.621780E+01   8.621780E+01   9.475786E+01   5.024432E+01   5.024432E+01   8.149059E+01   2.924632E+01   2.924632E+01   6.173662E+01   6.173662E+01   6.173662E+01   1.189715E+02   1.189715E+02   1.189715E+02   1.523695E+02   1.523695E+02   1.523695E+02   1.523695E+02   1.523695E+02   7.763747E+01   7.763747E+01   7.763747E+01   7.763747E+01   7.763747E+01   1.336715E+02   1.336715E+02   1.336715E+02   1.336715E+02   1.336715E+02   1.336715E+02   1.336715E+02   1.499677E+02   1.499677E+02   1.499677E+02   1.499677E+02   1.499677E+02   1.499677E+02   1.499677E+02   1.499677E+02   1.499677E+02   1.499677E+02   9.422174E+01   9.422174E+01   9.422174E+01   9.422174E+01   9.422174E+01   9.422174E+01   9.422174E+01   9.422174E+01   9.422174E+01   7.362646E+01   7.362646E+01   7.362646E+01   7.362646E+01   7.362646E+01   7.362646E+01   7.362646E+01   8.704138E+01   8.704138E+01   8.704138E+01   8.704138E+01   8.704138E+01   4.920542E+01   4.920542E+01   4.920542E+01   4.920542E+01   2.213816E+01   2.213816E+01   2.213816E+01   1.700863E+01   1.700863E+01   1.658609E+01   1.658609E+01   1.603655E+01   1.603655E+01   4.472252E+01   4.324479E+01   3.452812E+01   3.452812E+01   6.749122E+01   4.453133E+01   1.999553E+01   1.443332E+01   1.574883E+01   1.758572E+01   9.401064E+01   1.597949E+02   7.716699E+01   1.083032E+02   1.058814E+02   4.525294E+01   5.544865E+01   4.880318E+01   7.124505E+01   1.012865E+02   4.150232E+01   7.065405E+01   3.592186E+01   8.031690E+01   4.476754E+01   6.102617E+01   4.987585E+01   8.957551E+01   9.024014E+01   2.266238E+02   1.318031E+02   8.817715E+01   5.039611E+01   4.262926E+01   3.445387E+01   2.946189E+01   3.909266E+01   2.082195E+01   5.851895E+01   9.546674E+01   9.265910E+01   7.610015E+01   9.046896E+01