# LPF package for  MODFLOW-2005, generated by Flopy.
        53    -1E+30         0  
         1
         0
   0.000000E+00
         0
         0
INTERNAL               1 (207E15.6) -1 #hk layer 1                    
   7.247981E+01   9.399905E+01   9.678015E+01   2.002185E+02   9.438977E+01   4.594410E+01   1.054008E+02   4.569381E+01   4.830394E+01   7.099567E+01   1.041098E+02   1.654875E+02   2.635432E+02   2.098246E+02   4.235130E+02   5.381131E+02   3.553980E+02   1.042218E+02   5.242601E+01   7.530072E+01   1.084755E+02   1.129667E+02   2.757345E+02   2.654754E+02   1.197861E+02   7.984694E+01   8.316820E+01   5.866530E+01   5.089336E+01   5.547352E+01   1.289058E+01   3.968882E+01   3.131537E+01   3.228757E+01   4.285729E+01   1.166502E+02   4.455243E+01   6.662410E+01   1.085120E+02   8.329764E+01   1.681439E+02   1.608369E+02   1.272008E+02   1.236848E+02   1.456030E+02   1.255262E+02   1.700556E+02   4.783669E+01   9.686526E+01   6.430649E+01   9.346582E+01   1.796575E+02   7.854616E+01   2.775194E+01   1.088182E+01   8.428772E+00   2.710825E+01   5.407225E+01   5.340612E+01   1.353019E+02   3.681487E+01   3.420458E+01   1.698878E+02   1.300730E+02   8.319067E+01   1.125798E+02   9.288307E+01   4.699648E+01   6.902258E+01   6.724121E+01   2.907990E+01   4.844629E+01   2.132117E+01   1.558481E+01   1.522631E+01   1.946217E+01   3.492170E+01   6.837489E+01   1.009740E+02   3.272501E+01   1.405153E+02   1.099974E+02   1.885195E+02   1.434600E+02   1.690201E+02   1.501002E+02   1.672087E+02   6.189455E+01   5.983027E+01   2.340858E+01   2.340858E+01   3.462328E+01   1.612915E+01   1.612915E+01   5.906901E+01   1.928944E+02   1.928944E+02   1.125731E+02   1.125731E+02   1.125731E+02   1.442532E+02   1.442532E+02   1.442532E+02   2.108619E+02   2.108619E+02   2.108619E+02   2.108619E+02   2.108619E+02   4.717408E+02   4.717408E+02   4.717408E+02   4.717408E+02   4.717408E+02   4.263160E+02   4.263160E+02   4.263160E+02   4.263160E+02   4.263160E+02   4.263160E+02   4.263160E+02   2.110266E+02   2.110266E+02   2.110266E+02   2.110266E+02   2.110266E+02   2.110266E+02   2.110266E+02   2.110266E+02   2.110266E+02   2.110266E+02   1.020671E+02   1.020671E+02   1.020671E+02   1.020671E+02   1.020671E+02   1.020671E+02   1.020671E+02   1.020671E+02   1.020671E+02   1.059533E+02   1.059533E+02   1.059533E+02   1.059533E+02   1.059533E+02   1.059533E+02   1.059533E+02   3.069951E+02   3.069951E+02   3.069951E+02   3.069951E+02   3.069951E+02   6.792399E+01   6.792399E+01   6.792399E+01   6.792399E+01   1.364640E+02   1.364640E+02   1.364640E+02   4.301470E+01   4.301470E+01   6.241697E+01   6.241697E+01   5.513486E+01   5.513486E+01   3.976989E+01   2.906614E+01   4.044775E+01   4.044775E+01   7.785152E+01   2.354562E+02   2.401721E+02   8.838333E+01   9.429661E+01   6.193973E+01   2.364643E+02   7.583099E+01   9.918179E+01   9.394310E+01   4.763733E+01   3.348936E+01   9.653317E+01   1.014142E+02   1.176738E+02   3.617486E+01   2.367875E+01   2.314611E+01   7.125494E+01   2.398192E+01   3.202129E+01   7.041894E+01   2.379281E+01   7.647324E+01   3.449471E+01   6.313308E+01   6.088824E+01   2.024424E+01   5.419199E+01   8.597442E+01   1.079760E+02   1.693420E+02   8.081857E+01   9.675287E+01   5.447269E+01   1.672936E+01   3.364669E+01   6.709473E+01   1.458205E+02
   3.957981E+01   4.483933E+01   1.336499E+02   1.785111E+02   6.934546E+01   3.782882E+01   1.887578E+02   5.084008E+01   6.841336E+01   6.494006E+01   1.858885E+02   2.587630E+02   4.508890E+02   3.372393E+02   4.159518E+02   2.951050E+02   2.729101E+02   7.619040E+01   9.632696E+01   1.679319E+02   1.103985E+02   1.942061E+02   2.347191E+02   4.752537E+02   2.166983E+02   1.991197E+02   5.273402E+01   7.465191E+01   3.771850E+01   3.010479E+01   2.546873E+01   5.025803E+01   5.343163E+01   2.693521E+01   7.729333E+01   1.303385E+02   2.950433E+01   4.807742E+01   7.461956E+01   5.266907E+01   2.577711E+02   1.290606E+02   1.655862E+02   2.122751E+02   1.030321E+02   9.222229E+01   9.975907E+01   3.516615E+01   7.028769E+01   4.719530E+01   1.342182E+02   3.063381E+02   5.859682E+01   1.908302E+01   1.370631E+01   1.116953E+01   3.914873E+01   7.003936E+01   1.345496E+02   1.443107E+02   2.596242E+01   4.805787E+01   7.967095E+01   1.445162E+02   6.206287E+01   5.101237E+01   1.168647E+02   3.550409E+01   6.479549E+01   6.300472E+01   5.966454E+01   9.689832E+01   4.511145E+01   3.783968E+01   3.650204E+01   1.699202E+01   5.872028E+01   7.123073E+01   1.245426E+02   5.098414E+01   7.922188E+01   6.521241E+01   6.684090E+01   1.534371E+02   1.173328E+02   7.111266E+01   1.826341E+02   1.357392E+02   3.114666E+01   3.121617E+01   3.121617E+01   1.712926E+01   3.873260E+01   3.873260E+01   6.819991E+01   2.275241E+02   2.275241E+02   1.564036E+02   1.564036E+02   1.564036E+02   1.614247E+02   1.614247E+02   1.614247E+02   4.685949E+02   4.685949E+02   4.685949E+02   4.685949E+02   4.685949E+02   2.715196E+02   2.715196E+02   2.715196E+02   2.715196E+02   2.715196E+02   1.862131E+02   1.862131E+02   1.862131E+02   1.862131E+02   1.862131E+02   1.862131E+02   1.862131E+02   2.224953E+02   2.224953E+02   2.224953E+02   2.224953E+02   2.224953E+02   2.224953E+02   2.224953E+02   2.224953E+02   2.224953E+02   2.224953E+02   1.659540E+02   1.659540E+02   1.659540E+02   1.659540E+02   1.659540E+02   1.659540E+02   1.659540E+02   1.659540E+02   1.659540E+02   1.101482E+02   1.101482E+02   1.101482E+02   1.101482E+02   1.101482E+02   1.101482E+02   1.101482E+02   2.346283E+02   2.346283E+02   2.346283E+02   2.346283E+02   2.346283E+02   8.275552E+01   8.275552E+01   8.275552E+01   8.275552E+01   1.099225E+02   1.099225E+02   1.099225E+02   4.818162E+01   4.818162E+01   1.121825E+02   1.121825E+02   7.388068E+01   7.388068E+01   8.514050E+01   7.334333E+01   4.182462E+01   4.182462E+01   1.597342E+02   7.392880E+02   3.118418E+02   1.430746E+02   1.445233E+02   7.432464E+01   1.893855E+02   8.467626E+01   1.089035E+02   5.752787E+01   5.257541E+01   3.398738E+01   1.854063E+02   1.360815E+02   1.384370E+02   3.098933E+01   2.037418E+01   2.936139E+01   6.920365E+01   3.348277E+01   3.459638E+01   4.966258E+01   3.126897E+01   5.855127E+01   3.627624E+01   3.780150E+01   2.683473E+01   3.808975E+01   4.926692E+01   6.553933E+01   1.004934E+02   9.132476E+01   5.067711E+01   9.153203E+01   3.417116E+01   1.584854E+01   2.411266E+01   6.558228E+01   1.239042E+02
   8.080273E+01   3.185370E+01   8.544843E+01   1.765599E+02   9.279129E+01   6.007212E+01   1.986448E+02   8.208218E+01   1.445136E+02   1.145652E+02   3.500299E+02   1.747740E+02   3.936888E+02   3.270282E+02   1.745209E+02   5.733915E+02   2.609441E+02   6.045420E+01   2.636288E+02   2.250307E+02   1.714344E+02   1.586261E+02   3.256949E+02   2.567294E+02   8.888987E+01   1.124756E+02   6.327321E+01   8.006743E+01   4.538527E+01   5.876680E+01   3.580859E+01   3.167930E+01   3.799070E+01   5.055577E+01   6.922456E+01   7.577136E+01   3.871682E+01   2.765326E+01   4.148992E+01   6.146579E+01   2.712332E+02   1.470230E+02   1.026774E+02   3.500712E+02   8.422723E+01   9.870622E+01   4.291273E+01   3.349525E+01   5.437181E+01   5.782827E+01   6.771383E+01   1.088970E+02   7.161205E+01   1.690926E+01   1.843767E+01   1.987764E+01   8.413426E+01   5.394981E+01   1.782572E+02   1.126636E+02   1.593648E+01   3.572347E+01   5.346696E+01   3.740387E+01   4.976726E+01   8.294808E+01   7.660428E+01   4.081623E+01   8.523098E+01   9.482460E+01   3.703769E+01   6.330296E+01   3.707719E+01   3.245610E+01   1.751608E+01   2.055007E+01   4.796904E+01   6.683974E+01   5.404056E+01   4.065413E+01   5.610658E+01   5.548552E+01   1.048746E+02   1.249168E+02   1.213330E+02   8.838430E+01   1.029212E+02   8.402829E+01   3.655995E+01   3.171650E+01   3.171650E+01   3.536837E+01   2.969017E+01   2.969017E+01   9.830869E+01   6.413407E+01   6.413407E+01   3.443696E+02   3.443696E+02   3.443696E+02   1.871065E+02   1.871065E+02   1.871065E+02   2.177765E+02   2.177765E+02   2.177765E+02   2.177765E+02   2.177765E+02   1.634753E+02   1.634753E+02   1.634753E+02   1.634753E+02   1.634753E+02   1.424522E+02   1.424522E+02   1.424522E+02   1.424522E+02   1.424522E+02   1.424522E+02   1.424522E+02   1.258829E+02   1.258829E+02   1.258829E+02   1.258829E+02   1.258829E+02   1.258829E+02   1.258829E+02   1.258829E+02   1.258829E+02   1.258829E+02   9.580753E+01   9.580753E+01   9.580753E+01   9.580753E+01   9.580753E+01   9.580753E+01   9.580753E+01   9.580753E+01   9.580753E+01   1.504783E+02   1.504783E+02   1.504783E+02   1.504783E+02   1.504783E+02   1.504783E+02   1.504783E+02   2.425225E+02   2.425225E+02   2.425225E+02   2.425225E+02   2.425225E+02   8.976943E+01   8.976943E+01   8.976943E+01   8.976943E+01   1.702320E+02   1.702320E+02   1.702320E+02   1.231432E+02   1.231432E+02   5.751677E+01   5.751677E+01   8.816366E+01   8.816366E+01   9.695723E+01   4.843999E+01   5.335803E+01   5.335803E+01   2.261498E+02   2.336433E+02   1.370340E+02   6.099846E+01   1.177145E+02   1.348132E+02   2.767992E+02   9.732224E+01   1.045537E+02   7.180550E+01   7.105658E+01   1.447472E+02   1.612905E+02   1.264679E+02   1.401358E+02   4.678161E+01   2.937633E+01   4.557095E+01   5.810619E+01   4.899805E+01   2.873916E+01   7.420055E+01   5.332553E+01   7.053695E+01   4.600868E+01   5.584279E+01   2.451270E+01   6.598822E+01   3.901460E+01   1.177766E+02   8.244203E+01   7.462730E+01   3.634291E+01   1.393689E+02   2.353045E+01   1.754148E+01   3.015930E+01   7.692193E+01   2.824092E+02
   3.489834E+01   5.239257E+01   8.937104E+01   1.237928E+02   1.377335E+02   9.593339E+01   1.397087E+02   1.537071E+02   1.502063E+02   1.660701E+02   1.992678E+02   8.525711E+01   3.315484E+02   6.709653E+02   4.247453E+02   3.915169E+02   3.111065E+02   1.136833E+02   2.205821E+02   2.917304E+02   1.932852E+02   2.311830E+02   1.903372E+02   2.126095E+02   1.412166E+02   4.741487E+01   7.821230E+01   6.134473E+01   3.918372E+01   8.116557E+01   3.680801E+01   2.611447E+01   3.240223E+01   6.377534E+01   5.772491E+01   4.453448E+01   3.480725E+01   3.958543E+01   4.140901E+01   1.345611E+02   2.424459E+02   1.060809E+02   9.014728E+01   7.524779E+02   1.598583E+02   7.904881E+01   3.323195E+01   3.368507E+01   4.328461E+01   1.565325E+02   7.928689E+01   7.391216E+01   5.913142E+01   4.855878E+01   2.778913E+01   4.561255E+01   1.987978E+02   7.998040E+01   1.312083E+02   1.053648E+02   1.559608E+01   2.935870E+01   6.533292E+01   4.026160E+01   2.411274E+01   7.139133E+01   1.055606E+02   3.418982E+01   5.457503E+01   6.212381E+01   3.968301E+01   7.572763E+01   2.936398E+01   3.342013E+01   1.968123E+01   2.557146E+01   6.166909E+01   6.693454E+01   6.163186E+01   3.540136E+01   6.621281E+01   1.121015E+02   1.203732E+02   1.046522E+02   9.193512E+01   1.259481E+02   5.464533E+01   3.589960E+01   2.578563E+01   2.119998E+01   2.119998E+01   2.661429E+01   4.212155E+01   4.212155E+01   1.132811E+02   7.442956E+01   7.442956E+01   1.944375E+02   1.944375E+02   1.944375E+02   1.836541E+02   1.836541E+02   1.836541E+02   1.136935E+02   1.136935E+02   1.136935E+02   1.136935E+02   1.136935E+02   4.775848E+01   4.775848E+01   4.775848E+01   4.775848E+01   4.775848E+01   2.331102E+02   2.331102E+02   2.331102E+02   2.331102E+02   2.331102E+02   2.331102E+02   2.331102E+02   5.216354E+01   5.216354E+01   5.216354E+01   5.216354E+01   5.216354E+01   5.216354E+01   5.216354E+01   5.216354E+01   5.216354E+01   5.216354E+01   3.802945E+01   3.802945E+01   3.802945E+01   3.802945E+01   3.802945E+01   3.802945E+01   3.802945E+01   3.802945E+01   3.802945E+01   8.619696E+01   8.619696E+01   8.619696E+01   8.619696E+01   8.619696E+01   8.619696E+01   8.619696E+01   1.710648E+02   1.710648E+02   1.710648E+02   1.710648E+02   1.710648E+02   2.030350E+02   2.030350E+02   2.030350E+02   2.030350E+02   2.604641E+02   2.604641E+02   2.604641E+02   1.787893E+02   1.787893E+02   7.733165E+01   7.733165E+01   8.440895E+01   8.440895E+01   6.181645E+01   4.426595E+01   3.767119E+01   3.767119E+01   1.298845E+02   1.658582E+02   7.694516E+01   6.168080E+01   9.131750E+01   1.177435E+02   2.191497E+02   1.745012E+02   7.827780E+01   6.501367E+01   7.327661E+01   1.549019E+02   1.483720E+02   1.840368E+02   1.755114E+02   7.052734E+01   4.084378E+01   2.435085E+01   3.398140E+01   3.315585E+01   3.866653E+01   6.001076E+01   1.022707E+02   4.976162E+01   1.093400E+02   6.328481E+01   3.336736E+01   7.568884E+01   1.130548E+02   2.398240E+02   1.231980E+02   7.471755E+01   4.205759E+01   2.656502E+01   1.833434E+01   2.776793E+01   3.891346E+01   6.156984E+01   4.216841E+02
   4.315250E+01   4.595418E+01   2.352883E+01   3.511645E+01   1.181553E+02   1.244029E+02   1.808601E+02   3.107213E+02   1.411533E+02   1.737305E+02   1.765070E+02   1.620213E+02   2.654005E+02   7.546856E+02   4.837476E+02   2.891954E+02   4.331703E+02   2.797213E+02   2.506779E+02   1.113835E+02   2.349351E+02   2.422085E+02   1.438787E+02   1.245259E+02   3.535952E+02   3.778951E+01   8.011539E+01   3.003720E+01   2.077348E+01   8.332082E+01   3.450158E+01   2.022250E+01   2.565559E+01   4.887168E+01   3.823893E+01   3.142276E+01   3.411241E+01   2.737494E+01   5.542580E+01   2.195195E+02   2.495268E+02   1.444656E+02   1.190549E+02   3.106516E+02   1.623127E+02   1.199551E+02   4.057314E+01   1.634056E+02   9.793457E+01   5.784849E+01   4.619367E+01   6.893796E+01   7.907078E+01   8.132388E+01   7.438845E+01   1.468941E+02   4.453732E+02   1.411122E+02   2.154609E+02   1.973196E+02   2.576663E+01   2.117784E+01   2.499643E+01   4.470444E+01   1.712323E+01   3.447235E+01   1.428425E+02   2.815075E+01   8.779409E+01   7.714153E+01   1.077980E+02   1.273502E+02   3.573929E+01   1.762901E+01   3.908753E+01   2.515358E+01   5.933989E+01   1.137867E+02   1.214304E+02   6.288780E+01   4.670954E+01   1.322057E+02   1.272079E+02   5.444460E+01   7.538335E+01   5.988251E+01   8.003416E+01   4.622696E+01   4.171340E+01   4.186953E+01   4.186953E+01   2.864132E+01   4.024412E+01   4.024412E+01   4.812338E+01   9.669648E+01   9.669648E+01   1.666081E+02   1.666081E+02   1.666081E+02   7.187372E+01   7.187372E+01   7.187372E+01   1.318515E+02   1.318515E+02   1.318515E+02   1.318515E+02   1.318515E+02   6.051040E+01   6.051040E+01   6.051040E+01   6.051040E+01   6.051040E+01   1.832150E+02   1.832150E+02   1.832150E+02   1.832150E+02   1.832150E+02   1.832150E+02   1.832150E+02   9.776355E+01   9.776355E+01   9.776355E+01   9.776355E+01   9.776355E+01   9.776355E+01   9.776355E+01   9.776355E+01   9.776355E+01   9.776355E+01   5.193981E+01   5.193981E+01   5.193981E+01   5.193981E+01   5.193981E+01   5.193981E+01   5.193981E+01   5.193981E+01   5.193981E+01   5.195384E+01   5.195384E+01   5.195384E+01   5.195384E+01   5.195384E+01   5.195384E+01   5.195384E+01   1.525227E+02   1.525227E+02   1.525227E+02   1.525227E+02   1.525227E+02   2.032823E+02   2.032823E+02   2.032823E+02   2.032823E+02   2.167581E+02   2.167581E+02   2.167581E+02   1.333847E+02   1.333847E+02   4.511044E+01   4.511044E+01   1.014930E+02   1.014930E+02   1.460689E+02   7.024475E+01   3.060574E+01   3.060574E+01   1.747638E+02   1.423344E+02   1.197772E+02   6.535577E+01   1.126573E+02   8.079128E+01   3.793159E+02   1.349615E+02   3.882098E+01   9.271603E+01   1.428923E+02   4.494744E+02   2.088914E+02   1.674580E+02   7.094975E+01   4.480688E+01   3.750345E+01   2.177899E+01   2.311864E+01   2.374919E+01   5.844740E+01   9.700399E+01   8.768093E+01   1.235796E+02   1.700737E+02   1.204543E+02   4.885477E+01   1.174447E+02   4.116742E+02   1.440735E+02   7.942722E+01   1.138011E+02   3.075614E+01   2.881619E+01   1.876765E+01   4.714347E+01   5.337724E+01   1.246239E+02   5.624069E+02
   5.587767E+01   2.502298E+01   2.168608E+01   2.528039E+01   1.325799E+02   1.578544E+02   1.633480E+02   1.719968E+02   1.459124E+02   2.397116E+02   2.636195E+02   4.567233E+02   5.295500E+02   4.474357E+02   2.884235E+02   1.774428E+02   3.448875E+02   1.646470E+02   2.237215E+02   1.555832E+02   9.988871E+01   2.554366E+02   2.270259E+02   7.571432E+01   9.743970E+01   2.315630E+01   5.835183E+01   2.047889E+01   2.460507E+01   9.213169E+01   3.105193E+01   1.899568E+01   5.096590E+01   4.101110E+01   3.338186E+01   6.535773E+01   4.800027E+01   1.982918E+01   3.665149E+01   8.430302E+01   3.760866E+02   2.438362E+02   1.768112E+02   5.048449E+02   1.879639E+02   1.452314E+02   3.556067E+01   1.463313E+02   1.436976E+02   6.822973E+01   3.627768E+01   5.216253E+01   4.635923E+01   7.803982E+01   1.242954E+02   3.849973E+02   6.852966E+02   6.041124E+02   3.075786E+02   1.352919E+02   1.306385E+01   1.448593E+01   2.307913E+01   2.512198E+01   2.000251E+01   3.885137E+01   9.690455E+01   5.844937E+01   2.320863E+02   8.073329E+01   8.350253E+01   1.224287E+02   3.619039E+01   2.517623E+01   5.635150E+01   3.049620E+01   6.156817E+01   1.031437E+02   2.335275E+02   1.247577E+02   1.189180E+02   1.899387E+02   1.233428E+02   2.666610E+01   1.194615E+02   8.439053E+01   4.693888E+01   3.029349E+01   4.735348E+01   4.655215E+01   4.655215E+01   3.019856E+01   4.187925E+01   4.187925E+01   5.911719E+01   2.430458E+02   2.430458E+02   3.092718E+02   3.092718E+02   3.092718E+02   6.435817E+01   6.435817E+01   6.435817E+01   5.300177E+01   5.300177E+01   5.300177E+01   5.300177E+01   5.300177E+01   3.945335E+01   3.945335E+01   3.945335E+01   3.945335E+01   3.945335E+01   9.623900E+01   9.623900E+01   9.623900E+01   9.623900E+01   9.623900E+01   9.623900E+01   9.623900E+01   3.288080E+01   3.288080E+01   3.288080E+01   3.288080E+01   3.288080E+01   3.288080E+01   3.288080E+01   3.288080E+01   3.288080E+01   3.288080E+01   3.207845E+01   3.207845E+01   3.207845E+01   3.207845E+01   3.207845E+01   3.207845E+01   3.207845E+01   3.207845E+01   3.207845E+01   3.418448E+01   3.418448E+01   3.418448E+01   3.418448E+01   3.418448E+01   3.418448E+01   3.418448E+01   6.386269E+01   6.386269E+01   6.386269E+01   6.386269E+01   6.386269E+01   6.990678E+01   6.990678E+01   6.990678E+01   6.990678E+01   5.535256E+01   5.535256E+01   5.535256E+01   1.023079E+02   1.023079E+02   5.279484E+01   5.279484E+01   1.766025E+02   1.766025E+02   1.199482E+02   6.263091E+01   3.306349E+01   3.306349E+01   1.192985E+02   6.898825E+01   1.457157E+02   6.633260E+01   6.987102E+01   5.173671E+01   6.885241E+02   1.815168E+02   9.986703E+01   2.082889E+02   8.768303E+01   2.961908E+02   1.638226E+02   1.835456E+02   6.545834E+01   3.807146E+01   2.598009E+01   1.355513E+01   4.390391E+01   2.657007E+01   4.131025E+01   1.453937E+02   1.475334E+02   1.939742E+02   1.071027E+02   1.054273E+02   1.395340E+02   8.174477E+01   1.198898E+02   2.136164E+02   1.331872E+02   6.959747E+01   5.038066E+01   4.556024E+01   1.901100E+01   3.305809E+01   6.736987E+01   1.447599E+02   4.099824E+02
   3.728269E+01   4.083445E+01   1.630230E+01   3.982386E+01   8.397030E+01   4.015924E+02   2.271066E+02   1.873963E+02   1.565865E+02   6.127509E+02   2.552299E+02   4.381741E+02   5.945343E+02   3.084533E+02   2.583199E+02   3.127923E+02   2.015373E+02   1.206910E+02   3.648716E+02   1.143305E+02   6.844429E+01   1.483369E+02   9.249379E+01   1.027203E+02   4.780608E+01   4.666157E+01   5.041658E+01   3.358712E+01   9.859063E+01   1.675340E+02   3.743649E+01   4.633255E+01   7.909167E+01   3.985615E+01   2.325773E+01   3.026865E+01   3.880917E+01   4.018034E+01   3.090975E+01   7.852155E+01   1.262323E+02   2.994525E+02   3.343360E+02   4.029567E+02   3.428516E+02   1.470282E+02   5.135754E+01   1.288085E+02   2.075567E+02   7.250999E+01   3.627097E+01   2.975798E+01   4.349699E+01   8.551100E+01   1.130749E+02   8.811580E+02   5.766545E+02   3.048560E+02   1.827449E+02   1.223960E+02   3.987904E+01   7.807820E+00   3.482328E+01   3.234438E+01   2.196301E+01   4.741053E+01   6.563831E+01   1.453651E+02   1.995016E+02   9.383850E+01   9.064377E+01   1.937014E+02   4.769130E+01   3.006240E+01   4.428706E+01   2.212212E+01   4.935255E+01   3.091513E+02   3.828787E+02   2.680132E+02   6.844541E+01   1.052334E+02   7.556347E+01   4.113202E+01   8.487589E+01   5.308561E+01   5.601691E+01   2.696503E+01   2.315922E+01   2.164389E+01   2.164389E+01   3.857166E+01   4.485993E+01   4.485993E+01   4.123681E+01   2.417783E+02   2.417783E+02   4.962763E+02   4.962763E+02   4.962763E+02   1.171481E+02   1.171481E+02   1.171481E+02   4.956636E+01   4.956636E+01   4.956636E+01   4.956636E+01   4.956636E+01   4.617508E+01   4.617508E+01   4.617508E+01   4.617508E+01   4.617508E+01   1.040379E+02   1.040379E+02   1.040379E+02   1.040379E+02   1.040379E+02   1.040379E+02   1.040379E+02   2.785775E+01   2.785775E+01   2.785775E+01   2.785775E+01   2.785775E+01   2.785775E+01   2.785775E+01   2.785775E+01   2.785775E+01   2.785775E+01   1.707000E+01   1.707000E+01   1.707000E+01   1.707000E+01   1.707000E+01   1.707000E+01   1.707000E+01   1.707000E+01   1.707000E+01   3.558125E+01   3.558125E+01   3.558125E+01   3.558125E+01   3.558125E+01   3.558125E+01   3.558125E+01   5.653040E+01   5.653040E+01   5.653040E+01   5.653040E+01   5.653040E+01   2.772583E+01   2.772583E+01   2.772583E+01   2.772583E+01   7.502291E+01   7.502291E+01   7.502291E+01   3.159300E+02   3.159300E+02   1.148384E+02   1.148384E+02   3.130957E+02   3.130957E+02   1.307930E+02   5.657153E+01   2.110849E+01   2.110849E+01   4.292083E+01   3.157887E+01   9.241273E+01   4.387442E+01   4.092995E+01   6.679829E+01   4.413357E+02   1.565594E+02   8.518345E+01   1.732302E+02   1.078203E+02   3.215297E+02   1.388771E+02   1.660119E+02   5.654814E+01   3.939150E+01   2.729641E+01   3.137763E+01   5.609897E+01   4.193803E+01   1.035561E+02   1.705501E+02   1.022123E+02   2.723202E+02   2.486289E+02   1.658126E+02   1.930011E+02   1.093495E+02   1.190092E+02   1.245093E+02   1.193043E+02   7.808934E+01   2.512061E+01   6.792426E+01   2.730561E+01   6.988969E+01   1.535142E+02   1.262892E+02   3.942120E+02
   5.234893E+01   4.340387E+01   2.980290E+01   4.979284E+01   1.047633E+02   2.469765E+02   2.337794E+02   4.330283E+02   4.765473E+02   4.551472E+02   3.233175E+02   5.583762E+02   6.601481E+02   3.009764E+02   4.404698E+02   2.192163E+02   9.840218E+01   8.124877E+01   2.390741E+02   1.226309E+02   5.535634E+01   1.562953E+02   5.595109E+01   2.364396E+02   1.140498E+02   1.415466E+02   3.838291E+01   3.337047E+01   7.675368E+01   1.028551E+02   5.926068E+01   3.203743E+01   8.564588E+01   6.586005E+01   3.445997E+01   3.871407E+01   5.435590E+01   5.908964E+01   5.711989E+01   1.806922E+02   1.085143E+02   5.014897E+02   6.629261E+02   4.850219E+02   6.837213E+02   2.307435E+02   4.908965E+01   1.467554E+02   1.856423E+02   2.104089E+02   7.638613E+01   5.863576E+01   7.233790E+01   5.305758E+01   9.759551E+01   2.646590E+02   4.253389E+02   4.859281E+02   2.286346E+02   1.186683E+02   3.953799E+01   1.766971E+01   5.987138E+01   2.201028E+01   2.291303E+01   4.998602E+01   5.267101E+01   1.436267E+02   1.224065E+02   1.081067E+02   1.293525E+02   1.247031E+02   6.873590E+01   2.064748E+01   2.811142E+01   4.052691E+01   6.679397E+01   2.456669E+02   3.873547E+02   2.901038E+02   8.826683E+01   1.208520E+02   8.253672E+01   9.575601E+01   1.453929E+02   6.349872E+01   7.124212E+01   4.143138E+01   3.398539E+01   1.755970E+01   1.755970E+01   3.363320E+01   4.243034E+01   4.243034E+01   7.747986E+01   9.987043E+01   9.987043E+01   3.081767E+02   3.081767E+02   3.081767E+02   1.014746E+02   1.014746E+02   1.014746E+02   9.146781E+01   9.146781E+01   9.146781E+01   9.146781E+01   9.146781E+01   5.599553E+01   5.599553E+01   5.599553E+01   5.599553E+01   5.599553E+01   1.187188E+02   1.187188E+02   1.187188E+02   1.187188E+02   1.187188E+02   1.187188E+02   1.187188E+02   2.789314E+01   2.789314E+01   2.789314E+01   2.789314E+01   2.789314E+01   2.789314E+01   2.789314E+01   2.789314E+01   2.789314E+01   2.789314E+01   1.400854E+01   1.400854E+01   1.400854E+01   1.400854E+01   1.400854E+01   1.400854E+01   1.400854E+01   1.400854E+01   1.400854E+01   5.558696E+01   5.558696E+01   5.558696E+01   5.558696E+01   5.558696E+01   5.558696E+01   5.558696E+01   1.105803E+02   1.105803E+02   1.105803E+02   1.105803E+02   1.105803E+02   4.111397E+01   4.111397E+01   4.111397E+01   4.111397E+01   3.285162E+01   3.285162E+01   3.285162E+01   9.294903E+01   9.294903E+01   1.132928E+02   1.132928E+02   2.358884E+02   2.358884E+02   1.346122E+02   8.948550E+01   3.217047E+01   3.217047E+01   2.450628E+01   4.197846E+01   4.404691E+01   3.387946E+01   3.827710E+01   1.341572E+02   2.935523E+02   7.489130E+01   8.427721E+01   7.848147E+01   5.040627E+01   1.698041E+02   1.199776E+02   7.243344E+01   2.876902E+02   8.404759E+01   5.562700E+01   5.671838E+01   4.817997E+01   5.909941E+01   1.118119E+02   1.588984E+02   1.050399E+02   2.047042E+02   2.933601E+02   1.269539E+02   1.408943E+02   1.019794E+02   5.011402E+01   7.881395E+01   6.212739E+01   6.450776E+01   3.567963E+01   5.473849E+01   5.910204E+01   6.088773E+01   1.016252E+02   1.925681E+02   2.977462E+02
   3.162694E+01   2.949895E+01   3.251069E+01   6.256285E+01   7.208339E+01   7.853821E+01   1.566041E+02   5.395009E+02   6.936693E+02   4.079010E+02   2.050713E+02   1.674029E+02   4.116461E+02   4.255648E+02   6.780372E+02   3.162410E+02   1.095666E+02   1.690853E+02   1.831610E+02   1.403019E+02   8.506212E+01   8.104631E+01   5.460693E+01   6.227930E+01   5.846732E+01   4.195507E+01   3.110181E+01   4.390491E+01   8.211772E+01   1.099959E+02   6.743182E+01   4.047799E+01   1.550562E+02   1.555871E+02   6.982245E+01   3.729927E+01   8.827637E+01   1.052762E+02   5.204920E+01   1.151068E+02   1.371974E+02   6.858011E+02   6.790981E+02   5.568112E+02   7.512464E+02   5.856234E+02   6.889824E+01   9.783772E+01   1.697514E+02   2.035856E+02   8.321876E+01   6.742305E+01   7.744465E+01   4.130581E+01   7.421244E+01   1.370317E+02   1.269381E+02   5.907626E+02   1.452070E+02   3.560913E+02   8.513657E+01   5.305590E+01   5.904615E+01   3.595159E+01   4.170508E+01   4.348385E+01   6.635966E+01   1.264946E+02   2.300684E+02   1.835003E+02   3.583578E+02   1.506350E+02   8.665401E+01   2.200893E+01   1.802105E+01   4.884893E+01   1.438045E+02   1.983142E+02   2.243398E+02   3.112960E+02   1.001322E+02   9.454961E+01   8.087610E+01   3.032359E+02   6.053374E+02   1.098803E+02   9.285216E+01   6.184606E+01   2.055158E+01   2.883066E+01   2.883066E+01   4.654973E+01   7.084174E+01   7.084174E+01   6.543933E+01   9.688328E+01   9.688328E+01   2.163267E+02   2.163267E+02   2.163267E+02   1.507746E+02   1.507746E+02   1.507746E+02   2.382008E+02   2.382008E+02   2.382008E+02   2.382008E+02   2.382008E+02   1.358871E+02   1.358871E+02   1.358871E+02   1.358871E+02   1.358871E+02   8.576582E+01   8.576582E+01   8.576582E+01   8.576582E+01   8.576582E+01   8.576582E+01   8.576582E+01   4.666737E+01   4.666737E+01   4.666737E+01   4.666737E+01   4.666737E+01   4.666737E+01   4.666737E+01   4.666737E+01   4.666737E+01   4.666737E+01   1.666663E+01   1.666663E+01   1.666663E+01   1.666663E+01   1.666663E+01   1.666663E+01   1.666663E+01   1.666663E+01   1.666663E+01   2.853707E+01   2.853707E+01   2.853707E+01   2.853707E+01   2.853707E+01   2.853707E+01   2.853707E+01   7.637093E+01   7.637093E+01   7.637093E+01   7.637093E+01   7.637093E+01   4.300259E+01   4.300259E+01   4.300259E+01   4.300259E+01   5.372020E+01   5.372020E+01   5.372020E+01   6.883083E+01   6.883083E+01   1.549186E+02   1.549186E+02   2.645500E+02   2.645500E+02   2.723694E+02   1.227865E+02   3.009298E+01   3.009298E+01   4.210471E+01   2.337075E+01   6.885143E+01   5.543695E+01   8.251302E+01   9.905473E+01   1.855969E+02   1.252167E+02   7.354694E+01   8.327119E+01   8.209252E+01   1.694738E+02   2.723138E+02   3.598090E+01   1.979890E+02   6.993299E+01   4.013624E+01   5.627855E+01   3.688749E+01   7.260407E+01   8.174926E+01   6.221782E+01   1.141208E+02   2.109959E+02   2.577509E+02   2.171190E+02   7.499650E+01   1.279504E+02   8.408018E+01   3.665211E+01   4.646957E+01   1.456539E+02   4.982458E+01   5.704504E+01   1.265488E+02   8.365146E+01   1.165353E+02   2.064347E+02   2.615038E+02